version 3
run Cars-SplitBearer-DL-0-20250727-21:53:24-3946
attr configname Cars-SplitBearer-DL
attr datetime 20250727-21:53:24
attr datetimef 20250727-215324
attr experiment Cars-SplitBearer-DL
attr inifile omnetpp.ini
attr iterationvars ""
attr iterationvarsd ""
attr iterationvarsf ""
attr measurement ""
attr network simu5g.simulations.NR.cars.Highway
attr processid 3946
attr repetition 0
attr replication #0
attr resultdir results
attr runnumber 0
attr seedset 0
config image-path ../../../images:../../../../inet/images:../../../../veins/images:../../../../veins_inet/images
config description "Dual Connectivity con Split Bearer en Downlink para coches"
config *.server.numApps 10
config *.server.app[*].typename VoIPSender
config *.server.app[*].destAddress "\"car[\" + string(ancestorIndex(0)) + \"]\""
config *.server.app[*].destPort 3000
config *.server.app[*].startTime "uniform(0.1s, 0.5s)"
config *.server.app[*].tos 20
config *.car[*].numApps 1
config *.car[*].app[0].typename VoIPReceiver
config *.car[*].app[0].localPort 3000
config cmdenv-autoflush true
config network simu5g.simulations.NR.cars.Highway
config debug-on-errors false
config print-undisposed false
config sim-time-limit 100s
config **.sctp.**.scalar-recording false
config **.sctp.**.vector-recording false
config **.routingRecorder.enabled false
config *.playgroundSizeX 20000m
config *.playgroundSizeY 20000m
config *.playgroundSizeZ 50m
config *.veinsManager.host "\"localhost\""
config *.veinsManager.moduleType "\"simu5g.nodes.cars.NRCar\""
config *.veinsManager.moduleName "\"car\""
config *.veinsManager.launchConfig "xmldoc(\"heterogeneous.launchd.xml\")"
config *.veinsManager.updateInterval 0.1s
config *.car[*].mobility.typename VeinsInetMobility
config **.dualConnectivityEnabled true
config *.masterEnb.cellularNic.typename LteNicEnbD2D
config *.gNodeB1.masterId 2
config **.numBands 25
config **.ueTxPower 26dBm
config **.eNodeBTxPower 46dBm
config *.car[*].cellularNic.nrPhy.dynamicCellAssociation true
config *.car[*].cellularNic.nrPhy.enableHandover true
config *.car[*].masterId 2
config *.car[*].macCellId 2
config *.car[*].nrMasterId 1
config *.car[*].nrMacCellId 1
config *.gNodeB1.macCellId 1
config *.gNodeB1.macNodeId 1
config *.masterEnb.macCellId 2
config *.masterEnb.macNodeId 2
config *.gNodeB*.cellularNic.phy.enableHandover true
config *.masterEnb.cellularNic.phy.enableHandover true
config *.gNodeB*.cellularNic.phy.handoverLatency 50ms
config *.masterEnb.cellularNic.phy.handoverLatency 50ms
config *.gNodeB*.cellInfo.broadcastMessageInterval 1s
config *.masterEnb.cellInfo.broadcastMessageInterval 1s
config *.masterEnb.numX2Apps 1
config *.gNodeB1.numX2Apps 1
config *.masterEnb.x2App[0].server.localPort 5001
config *.gNodeB1.x2App[0].server.localPort 5000
config *.masterEnb.x2App[0].client.connectAddress "\"gNodeB1%x2ppp0\""
config *.gNodeB1.x2App[0].client.connectAddress "\"masterEnb%x2ppp0\""
config **.sctp.nagleEnabled false
config **.sctp.enableHeartbeats false

scalar Highway.gNodeB1.x2App[0].client ums 1452
scalar Highway.masterEnb.x2App[0].client ums 1452
par Highway.server.pppg$o[0].channel typename "\"inet.node.ethernet.Eth10G\""
par Highway.server.pppg$o[0].channel disabled false
attr mutable ""
par Highway.server.pppg$o[0].channel delay 5e-08s
attr mutable ""
attr unit s
par Highway.server.pppg$o[0].channel datarate 1e+10bps
attr mutable ""
attr unit bps
par Highway.server.pppg$o[0].channel ber 0
attr mutable ""
par Highway.server.pppg$o[0].channel per 0
attr mutable ""
par Highway.server.pppg$o[0].channel length 10m
attr unit m
par Highway.router.pppg$o[0].channel typename "\"inet.node.ethernet.Eth10G\""
par Highway.router.pppg$o[0].channel disabled false
attr mutable ""
par Highway.router.pppg$o[0].channel delay 5e-08s
attr mutable ""
attr unit s
par Highway.router.pppg$o[0].channel datarate 1e+10bps
attr mutable ""
attr unit bps
par Highway.router.pppg$o[0].channel ber 0
attr mutable ""
par Highway.router.pppg$o[0].channel per 0
attr mutable ""
par Highway.router.pppg$o[0].channel length 10m
attr unit m
par Highway.router.pppg$o[1].channel typename "\"inet.node.ethernet.Eth10G\""
par Highway.router.pppg$o[1].channel disabled false
attr mutable ""
par Highway.router.pppg$o[1].channel delay 5e-08s
attr mutable ""
attr unit s
par Highway.router.pppg$o[1].channel datarate 1e+10bps
attr mutable ""
attr unit bps
par Highway.router.pppg$o[1].channel ber 0
attr mutable ""
par Highway.router.pppg$o[1].channel per 0
attr mutable ""
par Highway.router.pppg$o[1].channel length 10m
attr unit m
par Highway.pgw.filterGate$o.channel typename "\"inet.node.ethernet.Eth10G\""
par Highway.pgw.filterGate$o.channel disabled false
attr mutable ""
par Highway.pgw.filterGate$o.channel delay 5e-08s
attr mutable ""
attr unit s
par Highway.pgw.filterGate$o.channel datarate 1e+10bps
attr mutable ""
attr unit bps
par Highway.pgw.filterGate$o.channel ber 0
attr mutable ""
par Highway.pgw.filterGate$o.channel per 0
attr mutable ""
par Highway.pgw.filterGate$o.channel length 10m
attr unit m
par Highway.pgw.pppg$o[0].channel typename "\"inet.node.ethernet.Eth10G\""
par Highway.pgw.pppg$o[0].channel disabled false
attr mutable ""
par Highway.pgw.pppg$o[0].channel delay 5e-08s
attr mutable ""
attr unit s
par Highway.pgw.pppg$o[0].channel datarate 1e+10bps
attr mutable ""
attr unit bps
par Highway.pgw.pppg$o[0].channel ber 0
attr mutable ""
par Highway.pgw.pppg$o[0].channel per 0
attr mutable ""
par Highway.pgw.pppg$o[0].channel length 10m
attr unit m
par Highway.masterEnb.ppp$o.channel typename "\"inet.node.ethernet.Eth10G\""
par Highway.masterEnb.ppp$o.channel disabled false
attr mutable ""
par Highway.masterEnb.ppp$o.channel delay 5e-08s
attr mutable ""
attr unit s
par Highway.masterEnb.ppp$o.channel datarate 1e+10bps
attr mutable ""
attr unit bps
par Highway.masterEnb.ppp$o.channel ber 0
attr mutable ""
par Highway.masterEnb.ppp$o.channel per 0
attr mutable ""
par Highway.masterEnb.ppp$o.channel length 10m
attr unit m
par Highway.masterEnb.x2$o[0].channel typename "\"inet.node.ethernet.Eth10G\""
par Highway.masterEnb.x2$o[0].channel disabled false
attr mutable ""
par Highway.masterEnb.x2$o[0].channel delay 5e-08s
attr mutable ""
attr unit s
par Highway.masterEnb.x2$o[0].channel datarate 1e+10bps
attr mutable ""
attr unit bps
par Highway.masterEnb.x2$o[0].channel ber 0
attr mutable ""
par Highway.masterEnb.x2$o[0].channel per 0
attr mutable ""
par Highway.masterEnb.x2$o[0].channel length 10m
attr unit m
par Highway.gNodeB1.x2$o[0].channel typename "\"inet.node.ethernet.Eth10G\""
par Highway.gNodeB1.x2$o[0].channel disabled false
attr mutable ""
par Highway.gNodeB1.x2$o[0].channel delay 5e-08s
attr mutable ""
attr unit s
par Highway.gNodeB1.x2$o[0].channel datarate 1e+10bps
attr mutable ""
attr unit bps
par Highway.gNodeB1.x2$o[0].channel ber 0
attr mutable ""
par Highway.gNodeB1.x2$o[0].channel per 0
attr mutable ""
par Highway.gNodeB1.x2$o[0].channel length 10m
attr unit m
par Highway.routingRecorder typename "\"inet.networklayer.ipv4.RoutingTableRecorder\""
par Highway.routingRecorder enabled false
par Highway.configurator typename "\"inet.networklayer.configurator.ipv4.Ipv4NetworkConfigurator\""
par Highway.configurator minLinkWeight 0.001
par Highway.configurator configureIsolatedNetworksSeparatly false
par Highway.configurator config "<config>...</config> at /home/erick/omnetpp-6.1/ProFinal/simu5g/simulations/NR/cars//demo.xml:1"
par Highway.configurator assignAddresses true
par Highway.configurator assignUniqueAddresses true
par Highway.configurator assignDisjunctSubnetAddresses true
par Highway.configurator addStaticRoutes true
par Highway.configurator addDefaultRoutes true
par Highway.configurator addSubnetRoutes true
par Highway.configurator addDirectRoutes true
par Highway.configurator optimizeRoutes true
par Highway.configurator dumpTopology false
par Highway.configurator dumpLinks false
par Highway.configurator dumpAddresses false
par Highway.configurator dumpRoutes false
par Highway.configurator dumpConfig "\"\""
par Highway.veinsManager typename "\"org.car2x.veins.subprojects.veins_inet.VeinsInetManager\""
par Highway.veinsManager connectAt 0s
attr unit s
par Highway.veinsManager firstStepAt -1s
attr unit s
par Highway.veinsManager updateInterval 0.1s
attr unit s
par Highway.veinsManager moduleType "\"simu5g.nodes.cars.NRCar\""
par Highway.veinsManager moduleName "\"car\""
par Highway.veinsManager moduleDisplayString "\"*='i=veins/node/car;is=vs'\""
par Highway.veinsManager trafficLightModuleType "\"\""
par Highway.veinsManager trafficLightModuleName "\"tls\""
par Highway.veinsManager trafficLightFilter "\"\""
par Highway.veinsManager trafficLightModuleDisplayString "\"i=veins/node/trafficlight;is=vs\""
par Highway.veinsManager host "\"localhost\""
par Highway.veinsManager port 9999
par Highway.veinsManager seed -1
par Highway.veinsManager autoShutdown true
par Highway.veinsManager margin 25
par Highway.veinsManager roiRoads "\"\""
par Highway.veinsManager roiRects "\"\""
par Highway.veinsManager penetrationRate 1
par Highway.veinsManager ignoreGuiCommands false
par Highway.veinsManager order -1
par Highway.veinsManager ignoreUnknownSubscriptionResults false
par Highway.veinsManager launchConfig "<launch>...</launch> at /home/erick/omnetpp-6.1/ProFinal/simu5g/simulations/NR/cars//heterogeneous.launchd.xml:1"
scalar Highway.veinsManager roiArea 0
par Highway.channelControl typename "\"simu5g.world.radio.LteChannelControl\""
par Highway.channelControl coreDebug false
par Highway.channelControl pMax 20mW
attr unit mW
par Highway.channelControl sat -110dBm
attr unit dBm
par Highway.channelControl alpha 2
par Highway.channelControl carrierFrequency 2.4e+09Hz
attr unit Hz
par Highway.channelControl numChannels 1
par Highway.binder typename "\"simu5g.common.binder.Binder\""
par Highway.binder blerShift 0
par Highway.binder maxDataRatePerRb 1.16Mbps
attr unit Mbps
par Highway.binder printTrafficGeneratorConfig false
par Highway.carrierAggregation.componentCarrier[0] typename "\"simu5g.common.carrierAggregation.ComponentCarrier\""
par Highway.carrierAggregation.componentCarrier[0] binderModule "\"binder\""
par Highway.carrierAggregation.componentCarrier[0] carrierFrequency 2GHz
attr unit GHz
par Highway.carrierAggregation.componentCarrier[0] numBands 25
par Highway.carrierAggregation.componentCarrier[0] numerologyIndex 0
par Highway.carrierAggregation.componentCarrier[0] useTdd false
par Highway.carrierAggregation.componentCarrier[0] tddNumSymbolsDl 7
par Highway.carrierAggregation.componentCarrier[0] tddNumSymbolsUl 7
par Highway.carrierAggregation typename "\"simu5g.common.carrierAggregation.CarrierAggregation\""
par Highway.carrierAggregation numComponentCarriers 1
par Highway.server.pppg$i[0].channel typename "\"ned.IdealChannel\""
par Highway.server.ppp[0].phys$o.channel typename "\"ned.IdealChannel\""
par Highway.server.interfaceTable typename "\"inet.networklayer.common.InterfaceTable\""
par Highway.server.interfaceTable displayAddresses false
par Highway.server.cb typename "\"inet.common.MessageDispatcher\""
par Highway.server.cb displayStringTextFormat "\"processed %p pk (%l)\""
par Highway.server.cb forwardServiceRegistration true
par Highway.server.cb forwardProtocolRegistration true
par Highway.server.bl typename "\"inet.common.MessageDispatcher\""
par Highway.server.bl displayStringTextFormat "\"processed %p pk (%l)\""
par Highway.server.bl forwardServiceRegistration true
par Highway.server.bl forwardProtocolRegistration true
par Highway.server.li typename "\"inet.common.MessageDispatcher\""
par Highway.server.li displayStringTextFormat "\"processed %p pk (%l)\""
par Highway.server.li forwardServiceRegistration true
par Highway.server.li forwardProtocolRegistration true
par Highway.server.lo[0].upperLayerIn.channel typename "\"ned.IdealChannel\""
par Highway.server.lo[0].lo.upperLayerOut.channel typename "\"ned.IdealChannel\""
par Highway.server.lo[0].lo typename "\"inet.linklayer.loopback.Loopback\""
par Highway.server.lo[0].lo interfaceTableModule "\"Highway.server.interfaceTable\""
par Highway.server.lo[0].lo mtu 4470B
attr unit B
scalar Highway.server.lo[0].lo rcvdPkFromHl:count 0
attr interpolationmode none
attr recordingmode count
attr source packetReceivedFromUpper
attr title "packets received from higher layer, count"
scalar Highway.server.lo[0].lo rcvdPkFromHl:sum(packetBytes) 0
attr interpolationmode none
attr recordingmode sum(packetBytes)
attr source packetReceivedFromUpper
attr title "packets received from higher layer, sum(packetBytes)"
scalar Highway.server.lo[0].lo passedUpPk:count 0
attr interpolationmode none
attr recordingmode count
attr source packetSentToUpper
attr title "packets passed to higher layer, count"
scalar Highway.server.lo[0].lo passedUpPk:sum(packetBytes) 0
attr interpolationmode none
attr recordingmode sum(packetBytes)
attr source packetSentToUpper
attr title "packets passed to higher layer, sum(packetBytes)"
par Highway.server.lo[0] typename "\"inet.linklayer.loopback.LoopbackInterface\""
par Highway.server.lo[0] displayStringTextFormat "\"%a (%i)\\n%m\""
par Highway.server.lo[0] recordPcap false
par Highway.server.lo[0] numPcapRecorders 0
par Highway.server.lo[0] interfaceTableModule "\"Highway.server.interfaceTable\""
scalar Highway.server.lo[0] packetDropInterfaceDown:count 0
attr interpolationmode none
attr recordingmode count
attr source packetDropReasonIsInterfaceDown(packetDropped)
attr title "packet drops: interface down, count"
scalar Highway.server.lo[0] packetDropInterfaceDown:sum(packetBytes) 0
attr interpolationmode none
attr recordingmode sum(packetBytes)
attr source packetDropReasonIsInterfaceDown(packetDropped)
attr title "packet drops: interface down, sum(packetBytes)"
scalar Highway.server.lo[0] packetDropNoCarrier:count 0
attr interpolationmode none
attr recordingmode count
attr source packetDropReasonIsNoCarrier(packetDropped)
attr title "packet drops: no carrier, count"
scalar Highway.server.lo[0] packetDropNoCarrier:sum(packetBytes) 0
attr interpolationmode none
attr recordingmode sum(packetBytes)
attr source packetDropReasonIsNoCarrier(packetDropped)
attr title "packet drops: no carrier, sum(packetBytes)"
par Highway.server.ppp[0].phys$i.channel typename "\"ned.IdealChannel\""
par Highway.server.ppp[0].ppp.phys$o.channel typename "\"ned.IdealChannel\""
par Highway.server.ppp[0].ppp.upperLayerOut.channel typename "\"ned.IdealChannel\""
par Highway.server.ppp[0].upperLayerIn.channel typename "\"ned.IdealChannel\""
par Highway.server.ppp[0].queue typename "\"inet.queueing.queue.DropTailQueue\""
par Highway.server.ppp[0].queue displayStringTextFormat "\"contains %p pk (%l) pushed %u\\npulled %o removed %r dropped %d\""
par Highway.server.ppp[0].queue packetCapacity 10000
par Highway.server.ppp[0].queue dataCapacity -1b
attr unit b
par Highway.server.ppp[0].queue dropperClass "\"inet::queueing::PacketAtCollectionEndDropper\""
par Highway.server.ppp[0].queue comparatorClass "\"\""
par Highway.server.ppp[0].queue bufferModule "\"\""
scalar Highway.server.ppp[0].queue queueLength:last 0
attr autoWarmupFilter false
attr interpolationmode sample-hold
attr recordingmode last
attr source "warmup(atomic(constant0(packetPushEnded) + count(packetPushStarted) - count(packetPulled) - count(packetRemoved) - count(packetDropped)))"
attr title "queue length, last"
attr unit pk
scalar Highway.server.ppp[0].queue queueLength:max 0
attr autoWarmupFilter false
attr interpolationmode sample-hold
attr recordingmode max
attr source "warmup(atomic(constant0(packetPushEnded) + count(packetPushStarted) - count(packetPulled) - count(packetRemoved) - count(packetDropped)))"
attr title "queue length, max"
attr unit pk
scalar Highway.server.ppp[0].queue queueLength:timeavg 0
attr autoWarmupFilter false
attr interpolationmode sample-hold
attr recordingmode timeavg
attr source "warmup(atomic(constant0(packetPushEnded) + count(packetPushStarted) - count(packetPulled) - count(packetRemoved) - count(packetDropped)))"
attr title "queue length, timeavg"
attr unit pk
scalar Highway.server.ppp[0].queue queueBitLength:last 0
attr autoWarmupFilter false
attr interpolationmode sample-hold
attr recordingmode last
attr source "warmup(atomic(constant0(packetPushEnded) + sum(packetLength(packetPushStarted)) - sum(packetLength(packetPulled)) - sum(packetLength(packetRemoved)) - sum(packetLength(packetDropped))))"
attr title "queue bit length, last"
attr unit b
scalar Highway.server.ppp[0].queue queueBitLength:max 0
attr autoWarmupFilter false
attr interpolationmode sample-hold
attr recordingmode max
attr source "warmup(atomic(constant0(packetPushEnded) + sum(packetLength(packetPushStarted)) - sum(packetLength(packetPulled)) - sum(packetLength(packetRemoved)) - sum(packetLength(packetDropped))))"
attr title "queue bit length, max"
attr unit b
scalar Highway.server.ppp[0].queue queueBitLength:timeavg 0
attr autoWarmupFilter false
attr interpolationmode sample-hold
attr recordingmode timeavg
attr source "warmup(atomic(constant0(packetPushEnded) + sum(packetLength(packetPushStarted)) - sum(packetLength(packetPulled)) - sum(packetLength(packetRemoved)) - sum(packetLength(packetDropped))))"
attr title "queue bit length, timeavg"
attr unit b
statistic Highway.server.ppp[0].queue queueingTime:histogram
field count 31
field mean 0
field stddev 0
field min 0
field max 0
field sum 0
field sqrsum 0
attr interpolationmode none
attr recordingmode histogram
attr source queueingTime(packetPulled)
attr title "queueing times"
attr unit s
bin	-inf	0
bin	-0.5	0
bin	-0.48	0
bin	-0.46	0
bin	-0.44	0
bin	-0.42	0
bin	-0.4	0
bin	-0.38	0
bin	-0.36	0
bin	-0.34	0
bin	-0.32	0
bin	-0.3	0
bin	-0.28	0
bin	-0.26	0
bin	-0.24	0
bin	-0.22	0
bin	-0.2	0
bin	-0.18	0
bin	-0.16	0
bin	-0.14	0
bin	-0.12	0
bin	-0.1	0
bin	-0.08	0
bin	-0.06	0
bin	-0.04	0
bin	-0.02	0
bin	0	31
bin	0.02	0
bin	0.04	0
bin	0.06	0
bin	0.08	0
bin	0.1	0
bin	0.12	0
bin	0.14	0
bin	0.16	0
bin	0.18	0
bin	0.2	0
bin	0.22	0
bin	0.24	0
bin	0.26	0
bin	0.28	0
bin	0.3	0
bin	0.32	0
bin	0.34	0
bin	0.36	0
bin	0.38	0
bin	0.4	0
bin	0.42	0
bin	0.44	0
bin	0.46	0
bin	0.48	0
bin	0.5	0
scalar Highway.server.ppp[0].queue outgoingPackets:count 31
attr recordingmode count
attr source packetPulled
attr title "outgoing packets, count"
attr unit pk
scalar Highway.server.ppp[0].queue outgoingPacketLengths:sum 16864
attr interpolationmode none
attr recordingmode sum
attr source packetLength(packetPulled)
attr title "outgoing packet lengths, sum"
attr unit b
statistic Highway.server.ppp[0].queue outgoingPacketLengths:histogram
field count 31
field mean 544
field stddev 0
field min 544
field max 544
field sum 16864
field sqrsum 9174016
attr interpolationmode none
attr recordingmode histogram
attr source packetLength(packetPulled)
attr title "outgoing packet lengths"
attr unit b
bin	-inf	0
bin	543	0
bin	544	31
bin	545	0
statistic Highway.server.ppp[0].queue flowQueueingTime:histogram
field count 0
field mean -nan
field stddev -nan
field min -nan
field max -nan
field sum 0
field sqrsum 0
attr interpolationmode none
attr recordingmode histogram
attr source queueingTime(demuxFlow(packetPulled))
attr title "flow queueing times"
attr unit s
bin	-inf	0
bin	0	0
bin	1	0
scalar Highway.server.ppp[0].queue incomingPackets:count 31
attr recordingmode count
attr source packetPushStarted
attr title "incoming packets, count"
attr unit pk
scalar Highway.server.ppp[0].queue incomingPacketLengths:sum 16864
attr interpolationmode none
attr recordingmode sum
attr source packetLength(packetPushStarted)
attr title "incoming packet lengths, sum"
attr unit b
statistic Highway.server.ppp[0].queue incomingPacketLengths:histogram
field count 31
field mean 544
field stddev 0
field min 544
field max 544
field sum 16864
field sqrsum 9174016
attr interpolationmode none
attr recordingmode histogram
attr source packetLength(packetPushStarted)
attr title "incoming packet lengths"
attr unit b
bin	-inf	0
bin	543	0
bin	544	31
bin	545	0
scalar Highway.server.ppp[0].queue droppedPacketsQueueOverflow:count 0
attr interpolationmode none
attr recordingmode count
attr source packetDropReasonIsQueueOverflow(packetDropped)
attr title "dropped packets: queue overflow, count"
attr unit pk
scalar Highway.server.ppp[0].queue droppedPacketLengthsQueueOverflow:sum 0
attr interpolationmode none
attr recordingmode sum
attr source packetLength(packetDropReasonIsQueueOverflow(packetDropped))
attr title "dropped packet lengths: queue overflow, sum"
attr unit b
par Highway.server.ppp[0].ppp typename "\"inet.linklayer.ppp.Ppp\""
par Highway.server.ppp[0].ppp interfaceTableModule "\"Highway.server.interfaceTable\""
par Highway.server.ppp[0].ppp displayStringTextFormat "\"rate: %b\\nsent: %s, rcvd: %r\\nqueue: %q, drop: %d\""
par Highway.server.ppp[0].ppp sendRawBytes false
par Highway.server.ppp[0].ppp mtu 4470B
attr unit B
par Highway.server.ppp[0].ppp stopOperationExtraTime -1s
attr unit s
par Highway.server.ppp[0].ppp stopOperationTimeout 2s
attr unit s
scalar Highway.server.ppp[0].ppp transmissionState:timeavg 1.6533333333333e-06
attr interpolationmode sample-hold
attr recordingmode timeavg
attr source transmissionStateChanged
attr title "tx state, timeavg"
scalar Highway.server.ppp[0].ppp rxPkOk:count 0
attr interpolationmode none
attr recordingmode count
attr source rxPkOk
attr title "packets received OK, count"
scalar Highway.server.ppp[0].ppp rxPkOk:sum(packetBytes) 0
attr interpolationmode none
attr recordingmode sum(packetBytes)
attr source rxPkOk
attr title "packets received OK, sum(packetBytes)"
scalar Highway.server.ppp[0].ppp txPk:count 31
attr interpolationmode none
attr recordingmode count
attr source packetSentToLower
attr title "packets transmitted, count"
scalar Highway.server.ppp[0].ppp txPk:sum(packetBytes) 2325
attr interpolationmode none
attr recordingmode sum(packetBytes)
attr source packetSentToLower
attr title "packets transmitted, sum(packetBytes)"
scalar Highway.server.ppp[0].ppp rcvdPkFromHl:count 31
attr interpolationmode none
attr recordingmode count
attr source packetReceivedFromUpper
attr title "packets received from higher layer, count"
scalar Highway.server.ppp[0].ppp rcvdPkFromHl:sum(packetBytes) 2108
attr interpolationmode none
attr recordingmode sum(packetBytes)
attr source packetReceivedFromUpper
attr title "packets received from higher layer, sum(packetBytes)"
scalar Highway.server.ppp[0].ppp passedUpPk:count 0
attr interpolationmode none
attr recordingmode count
attr source packetSentToUpper
attr title "packets passed to higher layer, count"
scalar Highway.server.ppp[0].ppp passedUpPk:sum(packetBytes) 0
attr interpolationmode none
attr recordingmode sum(packetBytes)
attr source packetSentToUpper
attr title "packets passed to higher layer, sum(packetBytes)"
scalar Highway.server.ppp[0].ppp packetDropIncorrectlyReceived:count 0
attr interpolationmode none
attr recordingmode count
attr source packetDropReasonIsIncorrectlyReceived(packetDropped)
attr title "packet drop: incorrectly received, count"
scalar Highway.server.ppp[0].ppp packetDropIncorrectlyReceived:sum(packetBytes) 0
attr interpolationmode none
attr recordingmode sum(packetBytes)
attr source packetDropReasonIsIncorrectlyReceived(packetDropped)
attr title "packet drop: incorrectly received, sum(packetBytes)"
scalar Highway.server.ppp[0].ppp packetDropInterfaceDown:count 0
attr interpolationmode none
attr recordingmode count
attr source packetDropReasonIsInterfaceDown(packetDropped)
attr title "packet drop: interface down, count"
scalar Highway.server.ppp[0].ppp packetDropInterfaceDown:sum(packetBytes) 0
attr interpolationmode none
attr recordingmode sum(packetBytes)
attr source packetDropReasonIsInterfaceDown(packetDropped)
attr title "packet drop: interface down, sum(packetBytes)"
par Highway.server.ppp[0] typename "\"inet.linklayer.ppp.PppInterface\""
par Highway.server.ppp[0] displayStringTextFormat "\"%a (%i)\\n%m\""
par Highway.server.ppp[0] recordPcap false
par Highway.server.ppp[0] numPcapRecorders 0
par Highway.server.ppp[0] interfaceTableModule "\"Highway.server.interfaceTable\""
scalar Highway.server.ppp[0] packetDropInterfaceDown:count 0
attr interpolationmode none
attr recordingmode count
attr source packetDropReasonIsInterfaceDown(packetDropped)
attr title "packet drops: interface down, count"
scalar Highway.server.ppp[0] packetDropInterfaceDown:sum(packetBytes) 0
attr interpolationmode none
attr recordingmode sum(packetBytes)
attr source packetDropReasonIsInterfaceDown(packetDropped)
attr title "packet drops: interface down, sum(packetBytes)"
scalar Highway.server.ppp[0] packetDropNoCarrier:count 0
attr interpolationmode none
attr recordingmode count
attr source packetDropReasonIsNoCarrier(packetDropped)
attr title "packet drops: no carrier, count"
scalar Highway.server.ppp[0] packetDropNoCarrier:sum(packetBytes) 0
attr interpolationmode none
attr recordingmode sum(packetBytes)
attr source packetDropReasonIsNoCarrier(packetDropped)
attr title "packet drops: no carrier, sum(packetBytes)"
par Highway.server.ipv4.transportIn.channel typename "\"ned.IdealChannel\""
par Highway.server.ipv4.up.out[0].channel typename "\"ned.IdealChannel\""
par Highway.server.ipv4.lp.out[2].channel typename "\"ned.IdealChannel\""
par Highway.server.ipv4.ifIn.channel typename "\"ned.IdealChannel\""
par Highway.server.ipv4.configurator typename "\"inet.networklayer.configurator.ipv4.Ipv4NodeConfigurator\""
par Highway.server.ipv4.configurator interfaceTableModule "\"Highway.server.interfaceTable\""
par Highway.server.ipv4.configurator routingTableModule "\"Highway.server.ipv4.routingTable\""
par Highway.server.ipv4.configurator networkConfiguratorModule "\"configurator\""
par Highway.server.ipv4.configurator configureRoutingTable true
par Highway.server.ipv4.routingTable typename "\"inet.networklayer.ipv4.Ipv4RoutingTable\""
par Highway.server.ipv4.routingTable interfaceTableModule "\"Highway.server.interfaceTable\""
par Highway.server.ipv4.routingTable routerId "\"auto\""
par Highway.server.ipv4.routingTable netmaskRoutes "\"*\""
par Highway.server.ipv4.routingTable forwarding false
par Highway.server.ipv4.routingTable multicastForwarding false
par Highway.server.ipv4.routingTable useAdminDist false
par Highway.server.ipv4.routingTable routingFile "\"\""
par Highway.server.ipv4.natTable typename "\"inet.networklayer.ipv4.Ipv4NatTable\""
par Highway.server.ipv4.natTable networkProtocolModule "\"^.ip\""
par Highway.server.ipv4.natTable config "<config/> at content:1"
par Highway.server.ipv4.up typename "\"inet.common.MessageDispatcher\""
par Highway.server.ipv4.up displayStringTextFormat "\"processed %p pk (%l)\""
par Highway.server.ipv4.up forwardServiceRegistration true
par Highway.server.ipv4.up forwardProtocolRegistration true
par Highway.server.ipv4.igmp typename "\"inet.networklayer.ipv4.Igmpv2\""
par Highway.server.ipv4.igmp interfaceTableModule "\"Highway.server.interfaceTable\""
par Highway.server.ipv4.igmp routingTableModule "\"Highway.server.ipv4.routingTable\""
par Highway.server.ipv4.igmp crcMode "\"declared\""
attr enum declared,computed
par Highway.server.ipv4.igmp enabled true
par Highway.server.ipv4.igmp robustnessVariable 2
par Highway.server.ipv4.igmp queryInterval 125s
attr unit s
par Highway.server.ipv4.igmp queryResponseInterval 10s
attr unit s
par Highway.server.ipv4.igmp groupMembershipInterval 260s
attr unit s
par Highway.server.ipv4.igmp otherQuerierPresentInterval 255s
attr unit s
par Highway.server.ipv4.igmp startupQueryInterval 31.25s
attr unit s
par Highway.server.ipv4.igmp startupQueryCount 2
par Highway.server.ipv4.igmp lastMemberQueryInterval 1s
attr unit s
par Highway.server.ipv4.igmp lastMemberQueryCount 2
par Highway.server.ipv4.igmp unsolicitedReportInterval 10s
attr unit s
par Highway.server.ipv4.icmp typename "\"inet.networklayer.ipv4.Icmp\""
par Highway.server.ipv4.icmp interfaceTableModule "\"Highway.server.interfaceTable\""
par Highway.server.ipv4.icmp routingTableModule "\"Highway.server.ipv4.routingTable\""
par Highway.server.ipv4.icmp crcMode "\"declared\""
attr enum declared,computed
attr mutable ""
par Highway.server.ipv4.icmp quoteLength 8B
attr mutable ""
attr unit B
par Highway.server.ipv4.mp typename "\"inet.common.MessageDispatcher\""
par Highway.server.ipv4.mp displayStringTextFormat "\"processed %p pk (%l)\""
par Highway.server.ipv4.mp forwardServiceRegistration true
par Highway.server.ipv4.mp forwardProtocolRegistration true
par Highway.server.ipv4.ip typename "\"inet.networklayer.ipv4.Ipv4\""
par Highway.server.ipv4.ip interfaceTableModule "\"Highway.server.interfaceTable\""
par Highway.server.ipv4.ip routingTableModule "\"Highway.server.ipv4.routingTable\""
par Highway.server.ipv4.ip arpModule "\"Highway.server.ipv4.arp\""
par Highway.server.ipv4.ip icmpModule "\"Highway.server.ipv4.icmp\""
par Highway.server.ipv4.ip crcMode "\"declared\""
attr enum declared,computed
par Highway.server.ipv4.ip timeToLive 32
par Highway.server.ipv4.ip multicastTimeToLive 32
par Highway.server.ipv4.ip fragmentTimeout 60s
attr unit s
par Highway.server.ipv4.ip limitedBroadcast false
par Highway.server.ipv4.ip directBroadcastInterfaces "\"\""
scalar Highway.server.ipv4.ip packetDropAddressResolutionFailed:count 0
attr interpolationmode none
attr recordingmode count
attr source packetDropReasonIsAddressResolutionFailed(packetDropped)
attr title "packet drop: address resolution failed, count"
scalar Highway.server.ipv4.ip packetDropAddressResolutionFailed:sum(packetBytes) 0
attr interpolationmode none
attr recordingmode sum(packetBytes)
attr source packetDropReasonIsAddressResolutionFailed(packetDropped)
attr title "packet drop: address resolution failed, sum(packetBytes)"
scalar Highway.server.ipv4.ip packetDropHopLimitReached:count 0
attr interpolationmode none
attr recordingmode count
attr source packetDropReasonIsHopLimitReached(packetDropped)
attr title "packet drop: hop limit reached, count"
scalar Highway.server.ipv4.ip packetDropHopLimitReached:sum(packetBytes) 0
attr interpolationmode none
attr recordingmode sum(packetBytes)
attr source packetDropReasonIsHopLimitReached(packetDropped)
attr title "packet drop: hop limit reached, sum(packetBytes)"
scalar Highway.server.ipv4.ip packetDropForwardingDisabled:count 0
attr interpolationmode none
attr recordingmode count
attr source packetDropReasonIsForwardingDisabled(packetDropped)
attr title "packet drop: forwarding disabled, count"
scalar Highway.server.ipv4.ip packetDropForwardingDisabled:sum(packetBytes) 0
attr interpolationmode none
attr recordingmode sum(packetBytes)
attr source packetDropReasonIsForwardingDisabled(packetDropped)
attr title "packet drop: forwarding disabled, sum(packetBytes)"
scalar Highway.server.ipv4.ip packetDropNoInterfaceFound:count 0
attr interpolationmode none
attr recordingmode count
attr source packetDropReasonIsNoInterfaceFound(packetDropped)
attr title "packet drop: no interface found, count"
scalar Highway.server.ipv4.ip packetDropNoInterfaceFound:sum(packetBytes) 0
attr interpolationmode none
attr recordingmode sum(packetBytes)
attr source packetDropReasonIsNoInterfaceFound(packetDropped)
attr title "packet drop: no interface found, sum(packetBytes)"
scalar Highway.server.ipv4.ip packetDropNoRouteFound:count 0
attr interpolationmode none
attr recordingmode count
attr source packetDropReasonIsNoRouteFound(packetDropped)
attr title "packet drop: no route found, count"
scalar Highway.server.ipv4.ip packetDropNoRouteFound:sum(packetBytes) 0
attr interpolationmode none
attr recordingmode sum(packetBytes)
attr source packetDropReasonIsNoRouteFound(packetDropped)
attr title "packet drop: no route found, sum(packetBytes)"
scalar Highway.server.ipv4.ip packetDropUndefined:count 0
attr interpolationmode none
attr recordingmode count
attr source packetDropReasonIsUndefined(packetDropped)
attr title "packet drop: undefined, count"
scalar Highway.server.ipv4.ip packetDropUndefined:sum(packetBytes) 0
attr interpolationmode none
attr recordingmode sum(packetBytes)
attr source packetDropReasonIsUndefined(packetDropped)
attr title "packet drop: undefined, sum(packetBytes)"
par Highway.server.ipv4.arp typename "\"inet.networklayer.arp.ipv4.Arp\""
par Highway.server.ipv4.arp interfaceTableModule "\"Highway.server.interfaceTable\""
par Highway.server.ipv4.arp routingTableModule "\"Highway.server.ipv4.routingTable\""
par Highway.server.ipv4.arp retryTimeout 1s
attr unit s
par Highway.server.ipv4.arp retryCount 3
par Highway.server.ipv4.arp cacheTimeout 120s
attr unit s
par Highway.server.ipv4.arp proxyArpInterfaces "\"\""
scalar Highway.server.ipv4.arp arpResolutionFailed:count 0
attr recordingmode count
attr title "ARP failed resolutions, count"
scalar Highway.server.ipv4.arp arpResolutionCompleted:count 0
attr recordingmode count
attr title "ARP completed resolutions, count"
scalar Highway.server.ipv4.arp arpResolutionInitiated:count 0
attr recordingmode count
attr title "ARP initiated resolutions, count"
scalar Highway.server.ipv4.arp arpReplySent:count 0
attr recordingmode count
attr source arpReplySent
attr title "ARP replies sent, count"
scalar Highway.server.ipv4.arp arpReplySent:sum(packetBytes) 0
attr recordingmode sum(packetBytes)
attr source arpReplySent
attr title "ARP replies sent, sum(packetBytes)"
scalar Highway.server.ipv4.arp arpRequestSent:count 0
attr recordingmode count
attr source arpRequestSent
attr title "ARP request sent, count"
scalar Highway.server.ipv4.arp arpRequestSent:sum(packetBytes) 0
attr recordingmode sum(packetBytes)
attr source arpRequestSent
attr title "ARP request sent, sum(packetBytes)"
par Highway.server.ipv4.lp typename "\"inet.common.MessageDispatcher\""
par Highway.server.ipv4.lp displayStringTextFormat "\"processed %p pk (%l)\""
par Highway.server.ipv4.lp forwardServiceRegistration true
par Highway.server.ipv4.lp forwardProtocolRegistration true
par Highway.server.ipv4 typename "\"inet.networklayer.ipv4.Ipv4NetworkLayer\""
par Highway.server.ipv4 forwarding false
par Highway.server.ipv4 multicastForwarding false
par Highway.server.ipv4 interfaceTableModule "\"Highway.server.interfaceTable\""
par Highway.server.ipv4 displayStringTextFormat "\"%i\""
par Highway.server.nl typename "\"inet.common.MessageDispatcher\""
par Highway.server.nl displayStringTextFormat "\"processed %p pk (%l)\""
par Highway.server.nl forwardServiceRegistration true
par Highway.server.nl forwardProtocolRegistration true
par Highway.server.udp typename "\"inet.transportlayer.udp.Udp\""
par Highway.server.udp interfaceTableModule "\"Highway.server.interfaceTable\""
par Highway.server.udp icmpModule "\"^.ipv4.icmp\""
par Highway.server.udp icmpv6Module "\"^.ipv6.icmpv6\""
par Highway.server.udp crcMode "\"declared\""
attr enum disabled,declared,computed
par Highway.server.udp defaultMulticastLoop true
scalar Highway.server.udp packetReceived:count 0
attr interpolationmode none
attr recordingmode count
attr source packetReceived
attr title "packets received, count"
scalar Highway.server.udp packetReceived:sum(packetBytes) 0
attr interpolationmode none
attr recordingmode sum(packetBytes)
attr source packetReceived
attr title "packets received, sum(packetBytes)"
scalar Highway.server.udp packetSent:count 31
attr interpolationmode none
attr recordingmode count
attr source packetSent
attr title "packets sent, count"
scalar Highway.server.udp packetSent:sum(packetBytes) 1488
attr interpolationmode none
attr recordingmode sum(packetBytes)
attr source packetSent
attr title "packets sent, sum(packetBytes)"
scalar Highway.server.udp passedUpPk:count 0
attr interpolationmode none
attr recordingmode count
attr source packetSentToUpper
attr title "packets passed up, count"
scalar Highway.server.udp droppedPkWrongPort:count 0
attr interpolationmode none
attr recordingmode count
attr source packetDropReasonIsNoPortFound(packetDropped)
attr title "packets dropped (wrong port), count"
scalar Highway.server.udp droppedPkBadChecksum:count 0
attr interpolationmode none
attr recordingmode count
attr source packetDropReasonIsIncorrectlyReceived(packetDropped)
attr title "packets dropped (checksum error), count"
par Highway.server.tcp typename "\"inet.transportlayer.tcp.Tcp\""
par Highway.server.tcp crcMode "\"declared\""
attr enum declared,computed
par Highway.server.tcp advertisedWindow 7504
par Highway.server.tcp delayedAcksEnabled false
par Highway.server.tcp nagleEnabled true
par Highway.server.tcp limitedTransmitEnabled false
par Highway.server.tcp increasedIWEnabled false
par Highway.server.tcp sackSupport false
par Highway.server.tcp windowScalingSupport false
par Highway.server.tcp windowScalingFactor -1
par Highway.server.tcp timestampSupport false
par Highway.server.tcp mss 536
par Highway.server.tcp msl 120s
attr unit s
par Highway.server.tcp tcpAlgorithmClass "\"TcpReno\""
par Highway.server.tcp useDataNotification false
par Highway.server.tcp dupthresh 3
par Highway.server.tcp initialSsthresh 4294967295
par Highway.server.tcp stopOperationExtraTime 0s
attr unit s
par Highway.server.tcp stopOperationTimeout 2s
attr unit s
par Highway.server.tcp ecnWillingness false
par Highway.server.tcp dctcpGamma 0.0625
par Highway.server.tn typename "\"inet.common.MessageDispatcher\""
par Highway.server.tn displayStringTextFormat "\"processed %p pk (%l)\""
par Highway.server.tn forwardServiceRegistration true
par Highway.server.tn forwardProtocolRegistration true
par Highway.server.app[0] typename "\"simu5g.apps.voip.VoIPSender\""
par Highway.server.app[0] localPort -1
par Highway.server.app[0] destPort 3000
par Highway.server.app[0] destAddress "\"car[0]\""
par Highway.server.app[0] packetSize 40B
attr unit B
par Highway.server.app[0] shape_talk 0.824s
attr unit s
par Highway.server.app[0] scale_talk 1.423s
attr unit s
par Highway.server.app[0] shape_sil 1.089s
attr unit s
par Highway.server.app[0] scale_sil 0.9s
attr unit s
par Highway.server.app[0] is_talk true
par Highway.server.app[0] sampling_time 0.02s
attr unit s
par Highway.server.app[0] startTime 0.424607s
attr unit s
par Highway.server.app[0] silences true
par Highway.server.app[0] tos 20
scalar Highway.server.app[0] voIPGeneratedThroughput:mean 713.10836049756
attr recordingmode mean
attr source voIPGeneratedThroughput
attr title "Throughput generated by the application, mean"
attr unit Bps
par Highway.server.app[1] typename "\"simu5g.apps.voip.VoIPSender\""
par Highway.server.app[1] localPort -1
par Highway.server.app[1] destPort 3000
par Highway.server.app[1] destAddress "\"car[1]\""
par Highway.server.app[1] packetSize 40B
attr unit B
par Highway.server.app[1] shape_talk 0.824s
attr unit s
par Highway.server.app[1] scale_talk 1.423s
attr unit s
par Highway.server.app[1] shape_sil 1.089s
attr unit s
par Highway.server.app[1] scale_sil 0.9s
attr unit s
par Highway.server.app[1] is_talk true
par Highway.server.app[1] sampling_time 0.02s
attr unit s
par Highway.server.app[1] startTime 0.242762s
attr unit s
par Highway.server.app[1] silences true
par Highway.server.app[1] tos 20
scalar Highway.server.app[1] voIPGeneratedThroughput:mean -nan
attr recordingmode mean
attr source voIPGeneratedThroughput
attr title "Throughput generated by the application, mean"
attr unit Bps
par Highway.server.app[2] typename "\"simu5g.apps.voip.VoIPSender\""
par Highway.server.app[2] localPort -1
par Highway.server.app[2] destPort 3000
par Highway.server.app[2] destAddress "\"car[2]\""
par Highway.server.app[2] packetSize 40B
attr unit B
par Highway.server.app[2] shape_talk 0.824s
attr unit s
par Highway.server.app[2] scale_talk 1.423s
attr unit s
par Highway.server.app[2] shape_sil 1.089s
attr unit s
par Highway.server.app[2] scale_sil 0.9s
attr unit s
par Highway.server.app[2] is_talk true
par Highway.server.app[2] sampling_time 0.02s
attr unit s
par Highway.server.app[2] startTime 0.290434s
attr unit s
par Highway.server.app[2] silences true
par Highway.server.app[2] tos 20
scalar Highway.server.app[2] voIPGeneratedThroughput:mean -nan
attr recordingmode mean
attr source voIPGeneratedThroughput
attr title "Throughput generated by the application, mean"
attr unit Bps
par Highway.server.app[3] typename "\"simu5g.apps.voip.VoIPSender\""
par Highway.server.app[3] localPort -1
par Highway.server.app[3] destPort 3000
par Highway.server.app[3] destAddress "\"car[3]\""
par Highway.server.app[3] packetSize 40B
attr unit B
par Highway.server.app[3] shape_talk 0.824s
attr unit s
par Highway.server.app[3] scale_talk 1.423s
attr unit s
par Highway.server.app[3] shape_sil 1.089s
attr unit s
par Highway.server.app[3] scale_sil 0.9s
attr unit s
par Highway.server.app[3] is_talk true
par Highway.server.app[3] sampling_time 0.02s
attr unit s
par Highway.server.app[3] startTime 0.473536s
attr unit s
par Highway.server.app[3] silences true
par Highway.server.app[3] tos 20
scalar Highway.server.app[3] voIPGeneratedThroughput:mean -nan
attr recordingmode mean
attr source voIPGeneratedThroughput
attr title "Throughput generated by the application, mean"
attr unit Bps
par Highway.server.app[4] typename "\"simu5g.apps.voip.VoIPSender\""
par Highway.server.app[4] localPort -1
par Highway.server.app[4] destPort 3000
par Highway.server.app[4] destAddress "\"car[4]\""
par Highway.server.app[4] packetSize 40B
attr unit B
par Highway.server.app[4] shape_talk 0.824s
attr unit s
par Highway.server.app[4] scale_talk 1.423s
attr unit s
par Highway.server.app[4] shape_sil 1.089s
attr unit s
par Highway.server.app[4] scale_sil 0.9s
attr unit s
par Highway.server.app[4] is_talk true
par Highway.server.app[4] sampling_time 0.02s
attr unit s
par Highway.server.app[4] startTime 0.309262s
attr unit s
par Highway.server.app[4] silences true
par Highway.server.app[4] tos 20
scalar Highway.server.app[4] voIPGeneratedThroughput:mean -nan
attr recordingmode mean
attr source voIPGeneratedThroughput
attr title "Throughput generated by the application, mean"
attr unit Bps
par Highway.server.app[5] typename "\"simu5g.apps.voip.VoIPSender\""
par Highway.server.app[5] localPort -1
par Highway.server.app[5] destPort 3000
par Highway.server.app[5] destAddress "\"car[5]\""
par Highway.server.app[5] packetSize 40B
attr unit B
par Highway.server.app[5] shape_talk 0.824s
attr unit s
par Highway.server.app[5] scale_talk 1.423s
attr unit s
par Highway.server.app[5] shape_sil 1.089s
attr unit s
par Highway.server.app[5] scale_sil 0.9s
attr unit s
par Highway.server.app[5] is_talk true
par Highway.server.app[5] sampling_time 0.02s
attr unit s
par Highway.server.app[5] startTime 0.246531s
attr unit s
par Highway.server.app[5] silences true
par Highway.server.app[5] tos 20
scalar Highway.server.app[5] voIPGeneratedThroughput:mean -nan
attr recordingmode mean
attr source voIPGeneratedThroughput
attr title "Throughput generated by the application, mean"
attr unit Bps
par Highway.server.app[6] typename "\"simu5g.apps.voip.VoIPSender\""
par Highway.server.app[6] localPort -1
par Highway.server.app[6] destPort 3000
par Highway.server.app[6] destAddress "\"car[6]\""
par Highway.server.app[6] packetSize 40B
attr unit B
par Highway.server.app[6] shape_talk 0.824s
attr unit s
par Highway.server.app[6] scale_talk 1.423s
attr unit s
par Highway.server.app[6] shape_sil 1.089s
attr unit s
par Highway.server.app[6] scale_sil 0.9s
attr unit s
par Highway.server.app[6] is_talk true
par Highway.server.app[6] sampling_time 0.02s
attr unit s
par Highway.server.app[6] startTime 0.200208s
attr unit s
par Highway.server.app[6] silences true
par Highway.server.app[6] tos 20
scalar Highway.server.app[6] voIPGeneratedThroughput:mean -nan
attr recordingmode mean
attr source voIPGeneratedThroughput
attr title "Throughput generated by the application, mean"
attr unit Bps
par Highway.server.app[7] typename "\"simu5g.apps.voip.VoIPSender\""
par Highway.server.app[7] localPort -1
par Highway.server.app[7] destPort 3000
par Highway.server.app[7] destAddress "\"car[7]\""
par Highway.server.app[7] packetSize 40B
attr unit B
par Highway.server.app[7] shape_talk 0.824s
attr unit s
par Highway.server.app[7] scale_talk 1.423s
attr unit s
par Highway.server.app[7] shape_sil 1.089s
attr unit s
par Highway.server.app[7] scale_sil 0.9s
attr unit s
par Highway.server.app[7] is_talk true
par Highway.server.app[7] sampling_time 0.02s
attr unit s
par Highway.server.app[7] startTime 0.470457s
attr unit s
par Highway.server.app[7] silences true
par Highway.server.app[7] tos 20
scalar Highway.server.app[7] voIPGeneratedThroughput:mean -nan
attr recordingmode mean
attr source voIPGeneratedThroughput
attr title "Throughput generated by the application, mean"
attr unit Bps
par Highway.server.app[8] typename "\"simu5g.apps.voip.VoIPSender\""
par Highway.server.app[8] localPort -1
par Highway.server.app[8] destPort 3000
par Highway.server.app[8] destAddress "\"car[8]\""
par Highway.server.app[8] packetSize 40B
attr unit B
par Highway.server.app[8] shape_talk 0.824s
attr unit s
par Highway.server.app[8] scale_talk 1.423s
attr unit s
par Highway.server.app[8] shape_sil 1.089s
attr unit s
par Highway.server.app[8] scale_sil 0.9s
attr unit s
par Highway.server.app[8] is_talk true
par Highway.server.app[8] sampling_time 0.02s
attr unit s
par Highway.server.app[8] startTime 0.342017s
attr unit s
par Highway.server.app[8] silences true
par Highway.server.app[8] tos 20
scalar Highway.server.app[8] voIPGeneratedThroughput:mean -nan
attr recordingmode mean
attr source voIPGeneratedThroughput
attr title "Throughput generated by the application, mean"
attr unit Bps
par Highway.server.app[9] typename "\"simu5g.apps.voip.VoIPSender\""
par Highway.server.app[9] localPort -1
par Highway.server.app[9] destPort 3000
par Highway.server.app[9] destAddress "\"car[9]\""
par Highway.server.app[9] packetSize 40B
attr unit B
par Highway.server.app[9] shape_talk 0.824s
attr unit s
par Highway.server.app[9] scale_talk 1.423s
attr unit s
par Highway.server.app[9] shape_sil 1.089s
attr unit s
par Highway.server.app[9] scale_sil 0.9s
attr unit s
par Highway.server.app[9] is_talk true
par Highway.server.app[9] sampling_time 0.02s
attr unit s
par Highway.server.app[9] startTime 0.123427s
attr unit s
par Highway.server.app[9] silences true
par Highway.server.app[9] tos 20
scalar Highway.server.app[9] voIPGeneratedThroughput:mean -nan
attr recordingmode mean
attr source voIPGeneratedThroughput
attr title "Throughput generated by the application, mean"
attr unit Bps
par Highway.server.at typename "\"inet.common.MessageDispatcher\""
par Highway.server.at displayStringTextFormat "\"processed %p pk (%l)\""
par Highway.server.at forwardServiceRegistration true
par Highway.server.at forwardProtocolRegistration true
par Highway.server typename "\"inet.node.inet.StandardHost\""
par Highway.server hasStatus false
par Highway.server osgModel "\"\""
par Highway.server osgModelColor "\"\""
par Highway.server canvasImage "\"\""
par Highway.server canvasImageColor "\"\""
par Highway.server recordPcap false
par Highway.server numPcapRecorders 0
par Highway.server numLoInterfaces 1
par Highway.server numWlanInterfaces 0
par Highway.server numEthInterfaces 0
par Highway.server numPppInterfaces 0
par Highway.server numTunInterfaces 0
par Highway.server numVirtInterfaces 0
par Highway.server fcsMode "\"declared\""
attr enum declared,computed
par Highway.server hasIpv4 true
par Highway.server hasIpv6 false
par Highway.server hasGn false
par Highway.server forwarding false
par Highway.server multicastForwarding false
par Highway.server hasUdp true
par Highway.server hasTcp true
par Highway.server hasSctp false
par Highway.server numApps 10
par Highway.router.pppg$i[0].channel typename "\"ned.IdealChannel\""
par Highway.router.ppp[0].phys$o.channel typename "\"ned.IdealChannel\""
par Highway.router.pppg$i[1].channel typename "\"ned.IdealChannel\""
par Highway.router.ppp[1].phys$o.channel typename "\"ned.IdealChannel\""
par Highway.router.interfaceTable typename "\"inet.networklayer.common.InterfaceTable\""
par Highway.router.interfaceTable displayAddresses false
par Highway.router.cb typename "\"inet.common.MessageDispatcher\""
par Highway.router.cb displayStringTextFormat "\"processed %p pk (%l)\""
par Highway.router.cb forwardServiceRegistration true
par Highway.router.cb forwardProtocolRegistration true
par Highway.router.bl typename "\"inet.common.MessageDispatcher\""
par Highway.router.bl displayStringTextFormat "\"processed %p pk (%l)\""
par Highway.router.bl forwardServiceRegistration true
par Highway.router.bl forwardProtocolRegistration true
par Highway.router.li typename "\"inet.common.MessageDispatcher\""
par Highway.router.li displayStringTextFormat "\"processed %p pk (%l)\""
par Highway.router.li forwardServiceRegistration true
par Highway.router.li forwardProtocolRegistration true
par Highway.router.lo[0].upperLayerIn.channel typename "\"ned.IdealChannel\""
par Highway.router.lo[0].lo.upperLayerOut.channel typename "\"ned.IdealChannel\""
par Highway.router.lo[0].lo typename "\"inet.linklayer.loopback.Loopback\""
par Highway.router.lo[0].lo interfaceTableModule "\"Highway.router.interfaceTable\""
par Highway.router.lo[0].lo mtu 4470B
attr unit B
scalar Highway.router.lo[0].lo rcvdPkFromHl:count 0
attr interpolationmode none
attr recordingmode count
attr source packetReceivedFromUpper
attr title "packets received from higher layer, count"
scalar Highway.router.lo[0].lo rcvdPkFromHl:sum(packetBytes) 0
attr interpolationmode none
attr recordingmode sum(packetBytes)
attr source packetReceivedFromUpper
attr title "packets received from higher layer, sum(packetBytes)"
scalar Highway.router.lo[0].lo passedUpPk:count 0
attr interpolationmode none
attr recordingmode count
attr source packetSentToUpper
attr title "packets passed to higher layer, count"
scalar Highway.router.lo[0].lo passedUpPk:sum(packetBytes) 0
attr interpolationmode none
attr recordingmode sum(packetBytes)
attr source packetSentToUpper
attr title "packets passed to higher layer, sum(packetBytes)"
par Highway.router.lo[0] typename "\"inet.linklayer.loopback.LoopbackInterface\""
par Highway.router.lo[0] displayStringTextFormat "\"%a (%i)\\n%m\""
par Highway.router.lo[0] recordPcap false
par Highway.router.lo[0] numPcapRecorders 0
par Highway.router.lo[0] interfaceTableModule "\"Highway.router.interfaceTable\""
scalar Highway.router.lo[0] packetDropInterfaceDown:count 0
attr interpolationmode none
attr recordingmode count
attr source packetDropReasonIsInterfaceDown(packetDropped)
attr title "packet drops: interface down, count"
scalar Highway.router.lo[0] packetDropInterfaceDown:sum(packetBytes) 0
attr interpolationmode none
attr recordingmode sum(packetBytes)
attr source packetDropReasonIsInterfaceDown(packetDropped)
attr title "packet drops: interface down, sum(packetBytes)"
scalar Highway.router.lo[0] packetDropNoCarrier:count 0
attr interpolationmode none
attr recordingmode count
attr source packetDropReasonIsNoCarrier(packetDropped)
attr title "packet drops: no carrier, count"
scalar Highway.router.lo[0] packetDropNoCarrier:sum(packetBytes) 0
attr interpolationmode none
attr recordingmode sum(packetBytes)
attr source packetDropReasonIsNoCarrier(packetDropped)
attr title "packet drops: no carrier, sum(packetBytes)"
par Highway.router.ppp[0].phys$i.channel typename "\"ned.IdealChannel\""
par Highway.router.ppp[0].ppp.phys$o.channel typename "\"ned.IdealChannel\""
par Highway.router.ppp[0].ppp.upperLayerOut.channel typename "\"ned.IdealChannel\""
par Highway.router.ppp[0].upperLayerIn.channel typename "\"ned.IdealChannel\""
par Highway.router.ppp[0].queue typename "\"inet.queueing.queue.DropTailQueue\""
par Highway.router.ppp[0].queue displayStringTextFormat "\"contains %p pk (%l) pushed %u\\npulled %o removed %r dropped %d\""
par Highway.router.ppp[0].queue packetCapacity 10000
par Highway.router.ppp[0].queue dataCapacity -1b
attr unit b
par Highway.router.ppp[0].queue dropperClass "\"inet::queueing::PacketAtCollectionEndDropper\""
par Highway.router.ppp[0].queue comparatorClass "\"\""
par Highway.router.ppp[0].queue bufferModule "\"\""
scalar Highway.router.ppp[0].queue queueLength:last 0
attr autoWarmupFilter false
attr interpolationmode sample-hold
attr recordingmode last
attr source "warmup(atomic(constant0(packetPushEnded) + count(packetPushStarted) - count(packetPulled) - count(packetRemoved) - count(packetDropped)))"
attr title "queue length, last"
attr unit pk
scalar Highway.router.ppp[0].queue queueLength:max 0
attr autoWarmupFilter false
attr interpolationmode sample-hold
attr recordingmode max
attr source "warmup(atomic(constant0(packetPushEnded) + count(packetPushStarted) - count(packetPulled) - count(packetRemoved) - count(packetDropped)))"
attr title "queue length, max"
attr unit pk
scalar Highway.router.ppp[0].queue queueLength:timeavg 0
attr autoWarmupFilter false
attr interpolationmode sample-hold
attr recordingmode timeavg
attr source "warmup(atomic(constant0(packetPushEnded) + count(packetPushStarted) - count(packetPulled) - count(packetRemoved) - count(packetDropped)))"
attr title "queue length, timeavg"
attr unit pk
scalar Highway.router.ppp[0].queue queueBitLength:last 0
attr autoWarmupFilter false
attr interpolationmode sample-hold
attr recordingmode last
attr source "warmup(atomic(constant0(packetPushEnded) + sum(packetLength(packetPushStarted)) - sum(packetLength(packetPulled)) - sum(packetLength(packetRemoved)) - sum(packetLength(packetDropped))))"
attr title "queue bit length, last"
attr unit b
scalar Highway.router.ppp[0].queue queueBitLength:max 0
attr autoWarmupFilter false
attr interpolationmode sample-hold
attr recordingmode max
attr source "warmup(atomic(constant0(packetPushEnded) + sum(packetLength(packetPushStarted)) - sum(packetLength(packetPulled)) - sum(packetLength(packetRemoved)) - sum(packetLength(packetDropped))))"
attr title "queue bit length, max"
attr unit b
scalar Highway.router.ppp[0].queue queueBitLength:timeavg 0
attr autoWarmupFilter false
attr interpolationmode sample-hold
attr recordingmode timeavg
attr source "warmup(atomic(constant0(packetPushEnded) + sum(packetLength(packetPushStarted)) - sum(packetLength(packetPulled)) - sum(packetLength(packetRemoved)) - sum(packetLength(packetDropped))))"
attr title "queue bit length, timeavg"
attr unit b
statistic Highway.router.ppp[0].queue queueingTime:histogram
field count 0
field mean -nan
field stddev -nan
field min -nan
field max -nan
field sum 0
field sqrsum 0
attr interpolationmode none
attr recordingmode histogram
attr source queueingTime(packetPulled)
attr title "queueing times"
attr unit s
bin	-inf	0
bin	0	0
bin	1	0
scalar Highway.router.ppp[0].queue outgoingPackets:count 0
attr recordingmode count
attr source packetPulled
attr title "outgoing packets, count"
attr unit pk
scalar Highway.router.ppp[0].queue outgoingPacketLengths:sum 0
attr interpolationmode none
attr recordingmode sum
attr source packetLength(packetPulled)
attr title "outgoing packet lengths, sum"
attr unit b
statistic Highway.router.ppp[0].queue outgoingPacketLengths:histogram
field count 0
field mean -nan
field stddev -nan
field min -nan
field max -nan
field sum 0
field sqrsum 0
attr interpolationmode none
attr recordingmode histogram
attr source packetLength(packetPulled)
attr title "outgoing packet lengths"
attr unit b
bin	-inf	0
bin	0	0
bin	1	0
statistic Highway.router.ppp[0].queue flowQueueingTime:histogram
field count 0
field mean -nan
field stddev -nan
field min -nan
field max -nan
field sum 0
field sqrsum 0
attr interpolationmode none
attr recordingmode histogram
attr source queueingTime(demuxFlow(packetPulled))
attr title "flow queueing times"
attr unit s
bin	-inf	0
bin	0	0
bin	1	0
scalar Highway.router.ppp[0].queue incomingPackets:count 0
attr recordingmode count
attr source packetPushStarted
attr title "incoming packets, count"
attr unit pk
scalar Highway.router.ppp[0].queue incomingPacketLengths:sum 0
attr interpolationmode none
attr recordingmode sum
attr source packetLength(packetPushStarted)
attr title "incoming packet lengths, sum"
attr unit b
statistic Highway.router.ppp[0].queue incomingPacketLengths:histogram
field count 0
field mean -nan
field stddev -nan
field min -nan
field max -nan
field sum 0
field sqrsum 0
attr interpolationmode none
attr recordingmode histogram
attr source packetLength(packetPushStarted)
attr title "incoming packet lengths"
attr unit b
bin	-inf	0
bin	0	0
bin	1	0
scalar Highway.router.ppp[0].queue droppedPacketsQueueOverflow:count 0
attr interpolationmode none
attr recordingmode count
attr source packetDropReasonIsQueueOverflow(packetDropped)
attr title "dropped packets: queue overflow, count"
attr unit pk
scalar Highway.router.ppp[0].queue droppedPacketLengthsQueueOverflow:sum 0
attr interpolationmode none
attr recordingmode sum
attr source packetLength(packetDropReasonIsQueueOverflow(packetDropped))
attr title "dropped packet lengths: queue overflow, sum"
attr unit b
par Highway.router.ppp[0].ppp typename "\"inet.linklayer.ppp.Ppp\""
par Highway.router.ppp[0].ppp interfaceTableModule "\"Highway.router.interfaceTable\""
par Highway.router.ppp[0].ppp displayStringTextFormat "\"rate: %b\\nsent: %s, rcvd: %r\\nqueue: %q, drop: %d\""
par Highway.router.ppp[0].ppp sendRawBytes false
par Highway.router.ppp[0].ppp mtu 4470B
attr unit B
par Highway.router.ppp[0].ppp stopOperationExtraTime -1s
attr unit s
par Highway.router.ppp[0].ppp stopOperationTimeout 2s
attr unit s
scalar Highway.router.ppp[0].ppp transmissionState:timeavg 0
attr interpolationmode sample-hold
attr recordingmode timeavg
attr source transmissionStateChanged
attr title "tx state, timeavg"
scalar Highway.router.ppp[0].ppp rxPkOk:count 31
attr interpolationmode none
attr recordingmode count
attr source rxPkOk
attr title "packets received OK, count"
scalar Highway.router.ppp[0].ppp rxPkOk:sum(packetBytes) 2325
attr interpolationmode none
attr recordingmode sum(packetBytes)
attr source rxPkOk
attr title "packets received OK, sum(packetBytes)"
scalar Highway.router.ppp[0].ppp txPk:count 0
attr interpolationmode none
attr recordingmode count
attr source packetSentToLower
attr title "packets transmitted, count"
scalar Highway.router.ppp[0].ppp txPk:sum(packetBytes) 0
attr interpolationmode none
attr recordingmode sum(packetBytes)
attr source packetSentToLower
attr title "packets transmitted, sum(packetBytes)"
scalar Highway.router.ppp[0].ppp rcvdPkFromHl:count 0
attr interpolationmode none
attr recordingmode count
attr source packetReceivedFromUpper
attr title "packets received from higher layer, count"
scalar Highway.router.ppp[0].ppp rcvdPkFromHl:sum(packetBytes) 0
attr interpolationmode none
attr recordingmode sum(packetBytes)
attr source packetReceivedFromUpper
attr title "packets received from higher layer, sum(packetBytes)"
scalar Highway.router.ppp[0].ppp passedUpPk:count 31
attr interpolationmode none
attr recordingmode count
attr source packetSentToUpper
attr title "packets passed to higher layer, count"
scalar Highway.router.ppp[0].ppp passedUpPk:sum(packetBytes) 2108
attr interpolationmode none
attr recordingmode sum(packetBytes)
attr source packetSentToUpper
attr title "packets passed to higher layer, sum(packetBytes)"
scalar Highway.router.ppp[0].ppp packetDropIncorrectlyReceived:count 0
attr interpolationmode none
attr recordingmode count
attr source packetDropReasonIsIncorrectlyReceived(packetDropped)
attr title "packet drop: incorrectly received, count"
scalar Highway.router.ppp[0].ppp packetDropIncorrectlyReceived:sum(packetBytes) 0
attr interpolationmode none
attr recordingmode sum(packetBytes)
attr source packetDropReasonIsIncorrectlyReceived(packetDropped)
attr title "packet drop: incorrectly received, sum(packetBytes)"
scalar Highway.router.ppp[0].ppp packetDropInterfaceDown:count 0
attr interpolationmode none
attr recordingmode count
attr source packetDropReasonIsInterfaceDown(packetDropped)
attr title "packet drop: interface down, count"
scalar Highway.router.ppp[0].ppp packetDropInterfaceDown:sum(packetBytes) 0
attr interpolationmode none
attr recordingmode sum(packetBytes)
attr source packetDropReasonIsInterfaceDown(packetDropped)
attr title "packet drop: interface down, sum(packetBytes)"
par Highway.router.ppp[0] typename "\"inet.linklayer.ppp.PppInterface\""
par Highway.router.ppp[0] displayStringTextFormat "\"%a (%i)\\n%m\""
par Highway.router.ppp[0] recordPcap false
par Highway.router.ppp[0] numPcapRecorders 0
par Highway.router.ppp[0] interfaceTableModule "\"Highway.router.interfaceTable\""
scalar Highway.router.ppp[0] packetDropInterfaceDown:count 0
attr interpolationmode none
attr recordingmode count
attr source packetDropReasonIsInterfaceDown(packetDropped)
attr title "packet drops: interface down, count"
scalar Highway.router.ppp[0] packetDropInterfaceDown:sum(packetBytes) 0
attr interpolationmode none
attr recordingmode sum(packetBytes)
attr source packetDropReasonIsInterfaceDown(packetDropped)
attr title "packet drops: interface down, sum(packetBytes)"
scalar Highway.router.ppp[0] packetDropNoCarrier:count 0
attr interpolationmode none
attr recordingmode count
attr source packetDropReasonIsNoCarrier(packetDropped)
attr title "packet drops: no carrier, count"
scalar Highway.router.ppp[0] packetDropNoCarrier:sum(packetBytes) 0
attr interpolationmode none
attr recordingmode sum(packetBytes)
attr source packetDropReasonIsNoCarrier(packetDropped)
attr title "packet drops: no carrier, sum(packetBytes)"
par Highway.router.ppp[1].phys$i.channel typename "\"ned.IdealChannel\""
par Highway.router.ppp[1].ppp.phys$o.channel typename "\"ned.IdealChannel\""
par Highway.router.ppp[1].ppp.upperLayerOut.channel typename "\"ned.IdealChannel\""
par Highway.router.ppp[1].upperLayerIn.channel typename "\"ned.IdealChannel\""
par Highway.router.ppp[1].queue typename "\"inet.queueing.queue.DropTailQueue\""
par Highway.router.ppp[1].queue displayStringTextFormat "\"contains %p pk (%l) pushed %u\\npulled %o removed %r dropped %d\""
par Highway.router.ppp[1].queue packetCapacity 10000
par Highway.router.ppp[1].queue dataCapacity -1b
attr unit b
par Highway.router.ppp[1].queue dropperClass "\"inet::queueing::PacketAtCollectionEndDropper\""
par Highway.router.ppp[1].queue comparatorClass "\"\""
par Highway.router.ppp[1].queue bufferModule "\"\""
scalar Highway.router.ppp[1].queue queueLength:last 0
attr autoWarmupFilter false
attr interpolationmode sample-hold
attr recordingmode last
attr source "warmup(atomic(constant0(packetPushEnded) + count(packetPushStarted) - count(packetPulled) - count(packetRemoved) - count(packetDropped)))"
attr title "queue length, last"
attr unit pk
scalar Highway.router.ppp[1].queue queueLength:max 0
attr autoWarmupFilter false
attr interpolationmode sample-hold
attr recordingmode max
attr source "warmup(atomic(constant0(packetPushEnded) + count(packetPushStarted) - count(packetPulled) - count(packetRemoved) - count(packetDropped)))"
attr title "queue length, max"
attr unit pk
scalar Highway.router.ppp[1].queue queueLength:timeavg 0
attr autoWarmupFilter false
attr interpolationmode sample-hold
attr recordingmode timeavg
attr source "warmup(atomic(constant0(packetPushEnded) + count(packetPushStarted) - count(packetPulled) - count(packetRemoved) - count(packetDropped)))"
attr title "queue length, timeavg"
attr unit pk
scalar Highway.router.ppp[1].queue queueBitLength:last 0
attr autoWarmupFilter false
attr interpolationmode sample-hold
attr recordingmode last
attr source "warmup(atomic(constant0(packetPushEnded) + sum(packetLength(packetPushStarted)) - sum(packetLength(packetPulled)) - sum(packetLength(packetRemoved)) - sum(packetLength(packetDropped))))"
attr title "queue bit length, last"
attr unit b
scalar Highway.router.ppp[1].queue queueBitLength:max 0
attr autoWarmupFilter false
attr interpolationmode sample-hold
attr recordingmode max
attr source "warmup(atomic(constant0(packetPushEnded) + sum(packetLength(packetPushStarted)) - sum(packetLength(packetPulled)) - sum(packetLength(packetRemoved)) - sum(packetLength(packetDropped))))"
attr title "queue bit length, max"
attr unit b
scalar Highway.router.ppp[1].queue queueBitLength:timeavg 0
attr autoWarmupFilter false
attr interpolationmode sample-hold
attr recordingmode timeavg
attr source "warmup(atomic(constant0(packetPushEnded) + sum(packetLength(packetPushStarted)) - sum(packetLength(packetPulled)) - sum(packetLength(packetRemoved)) - sum(packetLength(packetDropped))))"
attr title "queue bit length, timeavg"
attr unit b
statistic Highway.router.ppp[1].queue queueingTime:histogram
field count 31
field mean 0
field stddev 0
field min 0
field max 0
field sum 0
field sqrsum 0
attr interpolationmode none
attr recordingmode histogram
attr source queueingTime(packetPulled)
attr title "queueing times"
attr unit s
bin	-inf	0
bin	-0.5	0
bin	-0.48	0
bin	-0.46	0
bin	-0.44	0
bin	-0.42	0
bin	-0.4	0
bin	-0.38	0
bin	-0.36	0
bin	-0.34	0
bin	-0.32	0
bin	-0.3	0
bin	-0.28	0
bin	-0.26	0
bin	-0.24	0
bin	-0.22	0
bin	-0.2	0
bin	-0.18	0
bin	-0.16	0
bin	-0.14	0
bin	-0.12	0
bin	-0.1	0
bin	-0.08	0
bin	-0.06	0
bin	-0.04	0
bin	-0.02	0
bin	0	31
bin	0.02	0
bin	0.04	0
bin	0.06	0
bin	0.08	0
bin	0.1	0
bin	0.12	0
bin	0.14	0
bin	0.16	0
bin	0.18	0
bin	0.2	0
bin	0.22	0
bin	0.24	0
bin	0.26	0
bin	0.28	0
bin	0.3	0
bin	0.32	0
bin	0.34	0
bin	0.36	0
bin	0.38	0
bin	0.4	0
bin	0.42	0
bin	0.44	0
bin	0.46	0
bin	0.48	0
bin	0.5	0
scalar Highway.router.ppp[1].queue outgoingPackets:count 31
attr recordingmode count
attr source packetPulled
attr title "outgoing packets, count"
attr unit pk
scalar Highway.router.ppp[1].queue outgoingPacketLengths:sum 16864
attr interpolationmode none
attr recordingmode sum
attr source packetLength(packetPulled)
attr title "outgoing packet lengths, sum"
attr unit b
statistic Highway.router.ppp[1].queue outgoingPacketLengths:histogram
field count 31
field mean 544
field stddev 0
field min 544
field max 544
field sum 16864
field sqrsum 9174016
attr interpolationmode none
attr recordingmode histogram
attr source packetLength(packetPulled)
attr title "outgoing packet lengths"
attr unit b
bin	-inf	0
bin	543	0
bin	544	31
bin	545	0
statistic Highway.router.ppp[1].queue flowQueueingTime:histogram
field count 0
field mean -nan
field stddev -nan
field min -nan
field max -nan
field sum 0
field sqrsum 0
attr interpolationmode none
attr recordingmode histogram
attr source queueingTime(demuxFlow(packetPulled))
attr title "flow queueing times"
attr unit s
bin	-inf	0
bin	0	0
bin	1	0
scalar Highway.router.ppp[1].queue incomingPackets:count 31
attr recordingmode count
attr source packetPushStarted
attr title "incoming packets, count"
attr unit pk
scalar Highway.router.ppp[1].queue incomingPacketLengths:sum 16864
attr interpolationmode none
attr recordingmode sum
attr source packetLength(packetPushStarted)
attr title "incoming packet lengths, sum"
attr unit b
statistic Highway.router.ppp[1].queue incomingPacketLengths:histogram
field count 31
field mean 544
field stddev 0
field min 544
field max 544
field sum 16864
field sqrsum 9174016
attr interpolationmode none
attr recordingmode histogram
attr source packetLength(packetPushStarted)
attr title "incoming packet lengths"
attr unit b
bin	-inf	0
bin	543	0
bin	544	31
bin	545	0
scalar Highway.router.ppp[1].queue droppedPacketsQueueOverflow:count 0
attr interpolationmode none
attr recordingmode count
attr source packetDropReasonIsQueueOverflow(packetDropped)
attr title "dropped packets: queue overflow, count"
attr unit pk
scalar Highway.router.ppp[1].queue droppedPacketLengthsQueueOverflow:sum 0
attr interpolationmode none
attr recordingmode sum
attr source packetLength(packetDropReasonIsQueueOverflow(packetDropped))
attr title "dropped packet lengths: queue overflow, sum"
attr unit b
par Highway.router.ppp[1].ppp typename "\"inet.linklayer.ppp.Ppp\""
par Highway.router.ppp[1].ppp interfaceTableModule "\"Highway.router.interfaceTable\""
par Highway.router.ppp[1].ppp displayStringTextFormat "\"rate: %b\\nsent: %s, rcvd: %r\\nqueue: %q, drop: %d\""
par Highway.router.ppp[1].ppp sendRawBytes false
par Highway.router.ppp[1].ppp mtu 4470B
attr unit B
par Highway.router.ppp[1].ppp stopOperationExtraTime -1s
attr unit s
par Highway.router.ppp[1].ppp stopOperationTimeout 2s
attr unit s
scalar Highway.router.ppp[1].ppp transmissionState:timeavg 1.6533333333333e-06
attr interpolationmode sample-hold
attr recordingmode timeavg
attr source transmissionStateChanged
attr title "tx state, timeavg"
scalar Highway.router.ppp[1].ppp rxPkOk:count 0
attr interpolationmode none
attr recordingmode count
attr source rxPkOk
attr title "packets received OK, count"
scalar Highway.router.ppp[1].ppp rxPkOk:sum(packetBytes) 0
attr interpolationmode none
attr recordingmode sum(packetBytes)
attr source rxPkOk
attr title "packets received OK, sum(packetBytes)"
scalar Highway.router.ppp[1].ppp txPk:count 31
attr interpolationmode none
attr recordingmode count
attr source packetSentToLower
attr title "packets transmitted, count"
scalar Highway.router.ppp[1].ppp txPk:sum(packetBytes) 2325
attr interpolationmode none
attr recordingmode sum(packetBytes)
attr source packetSentToLower
attr title "packets transmitted, sum(packetBytes)"
scalar Highway.router.ppp[1].ppp rcvdPkFromHl:count 31
attr interpolationmode none
attr recordingmode count
attr source packetReceivedFromUpper
attr title "packets received from higher layer, count"
scalar Highway.router.ppp[1].ppp rcvdPkFromHl:sum(packetBytes) 2108
attr interpolationmode none
attr recordingmode sum(packetBytes)
attr source packetReceivedFromUpper
attr title "packets received from higher layer, sum(packetBytes)"
scalar Highway.router.ppp[1].ppp passedUpPk:count 0
attr interpolationmode none
attr recordingmode count
attr source packetSentToUpper
attr title "packets passed to higher layer, count"
scalar Highway.router.ppp[1].ppp passedUpPk:sum(packetBytes) 0
attr interpolationmode none
attr recordingmode sum(packetBytes)
attr source packetSentToUpper
attr title "packets passed to higher layer, sum(packetBytes)"
scalar Highway.router.ppp[1].ppp packetDropIncorrectlyReceived:count 0
attr interpolationmode none
attr recordingmode count
attr source packetDropReasonIsIncorrectlyReceived(packetDropped)
attr title "packet drop: incorrectly received, count"
scalar Highway.router.ppp[1].ppp packetDropIncorrectlyReceived:sum(packetBytes) 0
attr interpolationmode none
attr recordingmode sum(packetBytes)
attr source packetDropReasonIsIncorrectlyReceived(packetDropped)
attr title "packet drop: incorrectly received, sum(packetBytes)"
scalar Highway.router.ppp[1].ppp packetDropInterfaceDown:count 0
attr interpolationmode none
attr recordingmode count
attr source packetDropReasonIsInterfaceDown(packetDropped)
attr title "packet drop: interface down, count"
scalar Highway.router.ppp[1].ppp packetDropInterfaceDown:sum(packetBytes) 0
attr interpolationmode none
attr recordingmode sum(packetBytes)
attr source packetDropReasonIsInterfaceDown(packetDropped)
attr title "packet drop: interface down, sum(packetBytes)"
par Highway.router.ppp[1] typename "\"inet.linklayer.ppp.PppInterface\""
par Highway.router.ppp[1] displayStringTextFormat "\"%a (%i)\\n%m\""
par Highway.router.ppp[1] recordPcap false
par Highway.router.ppp[1] numPcapRecorders 0
par Highway.router.ppp[1] interfaceTableModule "\"Highway.router.interfaceTable\""
scalar Highway.router.ppp[1] packetDropInterfaceDown:count 0
attr interpolationmode none
attr recordingmode count
attr source packetDropReasonIsInterfaceDown(packetDropped)
attr title "packet drops: interface down, count"
scalar Highway.router.ppp[1] packetDropInterfaceDown:sum(packetBytes) 0
attr interpolationmode none
attr recordingmode sum(packetBytes)
attr source packetDropReasonIsInterfaceDown(packetDropped)
attr title "packet drops: interface down, sum(packetBytes)"
scalar Highway.router.ppp[1] packetDropNoCarrier:count 0
attr interpolationmode none
attr recordingmode count
attr source packetDropReasonIsNoCarrier(packetDropped)
attr title "packet drops: no carrier, count"
scalar Highway.router.ppp[1] packetDropNoCarrier:sum(packetBytes) 0
attr interpolationmode none
attr recordingmode sum(packetBytes)
attr source packetDropReasonIsNoCarrier(packetDropped)
attr title "packet drops: no carrier, sum(packetBytes)"
par Highway.router.ipv4.transportIn.channel typename "\"ned.IdealChannel\""
par Highway.router.ipv4.up.out[0].channel typename "\"ned.IdealChannel\""
par Highway.router.ipv4.lp.out[2].channel typename "\"ned.IdealChannel\""
par Highway.router.ipv4.ifIn.channel typename "\"ned.IdealChannel\""
par Highway.router.ipv4.configurator typename "\"inet.networklayer.configurator.ipv4.Ipv4NodeConfigurator\""
par Highway.router.ipv4.configurator interfaceTableModule "\"Highway.router.interfaceTable\""
par Highway.router.ipv4.configurator routingTableModule "\"Highway.router.ipv4.routingTable\""
par Highway.router.ipv4.configurator networkConfiguratorModule "\"configurator\""
par Highway.router.ipv4.configurator configureRoutingTable true
par Highway.router.ipv4.routingTable typename "\"inet.networklayer.ipv4.Ipv4RoutingTable\""
par Highway.router.ipv4.routingTable interfaceTableModule "\"Highway.router.interfaceTable\""
par Highway.router.ipv4.routingTable routerId "\"auto\""
par Highway.router.ipv4.routingTable netmaskRoutes "\"*\""
par Highway.router.ipv4.routingTable forwarding true
par Highway.router.ipv4.routingTable multicastForwarding false
par Highway.router.ipv4.routingTable useAdminDist false
par Highway.router.ipv4.routingTable routingFile "\"\""
par Highway.router.ipv4.natTable typename "\"inet.networklayer.ipv4.Ipv4NatTable\""
par Highway.router.ipv4.natTable networkProtocolModule "\"^.ip\""
par Highway.router.ipv4.natTable config "<config/> at content:1"
par Highway.router.ipv4.up typename "\"inet.common.MessageDispatcher\""
par Highway.router.ipv4.up displayStringTextFormat "\"processed %p pk (%l)\""
par Highway.router.ipv4.up forwardServiceRegistration true
par Highway.router.ipv4.up forwardProtocolRegistration true
par Highway.router.ipv4.igmp typename "\"inet.networklayer.ipv4.Igmpv2\""
par Highway.router.ipv4.igmp interfaceTableModule "\"Highway.router.interfaceTable\""
par Highway.router.ipv4.igmp routingTableModule "\"Highway.router.ipv4.routingTable\""
par Highway.router.ipv4.igmp crcMode "\"declared\""
attr enum declared,computed
par Highway.router.ipv4.igmp enabled true
par Highway.router.ipv4.igmp robustnessVariable 2
par Highway.router.ipv4.igmp queryInterval 125s
attr unit s
par Highway.router.ipv4.igmp queryResponseInterval 10s
attr unit s
par Highway.router.ipv4.igmp groupMembershipInterval 260s
attr unit s
par Highway.router.ipv4.igmp otherQuerierPresentInterval 255s
attr unit s
par Highway.router.ipv4.igmp startupQueryInterval 31.25s
attr unit s
par Highway.router.ipv4.igmp startupQueryCount 2
par Highway.router.ipv4.igmp lastMemberQueryInterval 1s
attr unit s
par Highway.router.ipv4.igmp lastMemberQueryCount 2
par Highway.router.ipv4.igmp unsolicitedReportInterval 10s
attr unit s
par Highway.router.ipv4.icmp typename "\"inet.networklayer.ipv4.Icmp\""
par Highway.router.ipv4.icmp interfaceTableModule "\"Highway.router.interfaceTable\""
par Highway.router.ipv4.icmp routingTableModule "\"Highway.router.ipv4.routingTable\""
par Highway.router.ipv4.icmp crcMode "\"declared\""
attr enum declared,computed
attr mutable ""
par Highway.router.ipv4.icmp quoteLength 8B
attr mutable ""
attr unit B
par Highway.router.ipv4.mp typename "\"inet.common.MessageDispatcher\""
par Highway.router.ipv4.mp displayStringTextFormat "\"processed %p pk (%l)\""
par Highway.router.ipv4.mp forwardServiceRegistration true
par Highway.router.ipv4.mp forwardProtocolRegistration true
par Highway.router.ipv4.ip typename "\"inet.networklayer.ipv4.Ipv4\""
par Highway.router.ipv4.ip interfaceTableModule "\"Highway.router.interfaceTable\""
par Highway.router.ipv4.ip routingTableModule "\"Highway.router.ipv4.routingTable\""
par Highway.router.ipv4.ip arpModule "\"Highway.router.ipv4.arp\""
par Highway.router.ipv4.ip icmpModule "\"Highway.router.ipv4.icmp\""
par Highway.router.ipv4.ip crcMode "\"declared\""
attr enum declared,computed
par Highway.router.ipv4.ip timeToLive 32
par Highway.router.ipv4.ip multicastTimeToLive 32
par Highway.router.ipv4.ip fragmentTimeout 60s
attr unit s
par Highway.router.ipv4.ip limitedBroadcast false
par Highway.router.ipv4.ip directBroadcastInterfaces "\"\""
scalar Highway.router.ipv4.ip packetDropAddressResolutionFailed:count 0
attr interpolationmode none
attr recordingmode count
attr source packetDropReasonIsAddressResolutionFailed(packetDropped)
attr title "packet drop: address resolution failed, count"
scalar Highway.router.ipv4.ip packetDropAddressResolutionFailed:sum(packetBytes) 0
attr interpolationmode none
attr recordingmode sum(packetBytes)
attr source packetDropReasonIsAddressResolutionFailed(packetDropped)
attr title "packet drop: address resolution failed, sum(packetBytes)"
scalar Highway.router.ipv4.ip packetDropHopLimitReached:count 0
attr interpolationmode none
attr recordingmode count
attr source packetDropReasonIsHopLimitReached(packetDropped)
attr title "packet drop: hop limit reached, count"
scalar Highway.router.ipv4.ip packetDropHopLimitReached:sum(packetBytes) 0
attr interpolationmode none
attr recordingmode sum(packetBytes)
attr source packetDropReasonIsHopLimitReached(packetDropped)
attr title "packet drop: hop limit reached, sum(packetBytes)"
scalar Highway.router.ipv4.ip packetDropForwardingDisabled:count 0
attr interpolationmode none
attr recordingmode count
attr source packetDropReasonIsForwardingDisabled(packetDropped)
attr title "packet drop: forwarding disabled, count"
scalar Highway.router.ipv4.ip packetDropForwardingDisabled:sum(packetBytes) 0
attr interpolationmode none
attr recordingmode sum(packetBytes)
attr source packetDropReasonIsForwardingDisabled(packetDropped)
attr title "packet drop: forwarding disabled, sum(packetBytes)"
scalar Highway.router.ipv4.ip packetDropNoInterfaceFound:count 0
attr interpolationmode none
attr recordingmode count
attr source packetDropReasonIsNoInterfaceFound(packetDropped)
attr title "packet drop: no interface found, count"
scalar Highway.router.ipv4.ip packetDropNoInterfaceFound:sum(packetBytes) 0
attr interpolationmode none
attr recordingmode sum(packetBytes)
attr source packetDropReasonIsNoInterfaceFound(packetDropped)
attr title "packet drop: no interface found, sum(packetBytes)"
scalar Highway.router.ipv4.ip packetDropNoRouteFound:count 0
attr interpolationmode none
attr recordingmode count
attr source packetDropReasonIsNoRouteFound(packetDropped)
attr title "packet drop: no route found, count"
scalar Highway.router.ipv4.ip packetDropNoRouteFound:sum(packetBytes) 0
attr interpolationmode none
attr recordingmode sum(packetBytes)
attr source packetDropReasonIsNoRouteFound(packetDropped)
attr title "packet drop: no route found, sum(packetBytes)"
scalar Highway.router.ipv4.ip packetDropUndefined:count 0
attr interpolationmode none
attr recordingmode count
attr source packetDropReasonIsUndefined(packetDropped)
attr title "packet drop: undefined, count"
scalar Highway.router.ipv4.ip packetDropUndefined:sum(packetBytes) 0
attr interpolationmode none
attr recordingmode sum(packetBytes)
attr source packetDropReasonIsUndefined(packetDropped)
attr title "packet drop: undefined, sum(packetBytes)"
par Highway.router.ipv4.arp typename "\"inet.networklayer.arp.ipv4.Arp\""
par Highway.router.ipv4.arp interfaceTableModule "\"Highway.router.interfaceTable\""
par Highway.router.ipv4.arp routingTableModule "\"Highway.router.ipv4.routingTable\""
par Highway.router.ipv4.arp retryTimeout 1s
attr unit s
par Highway.router.ipv4.arp retryCount 3
par Highway.router.ipv4.arp cacheTimeout 120s
attr unit s
par Highway.router.ipv4.arp proxyArpInterfaces "\"*\""
scalar Highway.router.ipv4.arp arpResolutionFailed:count 0
attr recordingmode count
attr title "ARP failed resolutions, count"
scalar Highway.router.ipv4.arp arpResolutionCompleted:count 0
attr recordingmode count
attr title "ARP completed resolutions, count"
scalar Highway.router.ipv4.arp arpResolutionInitiated:count 0
[...]
attr title "SINR measured at packet reception, UL, mean"
attr unit dB
scalar Highway.car[1].cellularNic.nrChannelModel[0] rcvdSinrDl:mean -nan
attr recordingmode mean
attr source rcvdSinrDl
attr title "SINR measured at packet reception, DL, mean"
attr unit dB
par Highway.car[1].cellularNic.nrDlFbGen typename "\"simu5g.stack.phy.feedback.LteDlFeedbackGenerator\""
par Highway.car[1].cellularNic.nrDlFbGen feedbackType "\"ALLBANDS\""
attr enum ALLBANDS,PREFERRED,WIDEBAND
par Highway.car[1].cellularNic.nrDlFbGen rbAllocationType "\"localized\""
attr enum distributed,localized
par Highway.car[1].cellularNic.nrDlFbGen fbPeriod 6tti
attr unit tti
par Highway.car[1].cellularNic.nrDlFbGen fbDelay 1tti
attr unit tti
par Highway.car[1].cellularNic.nrDlFbGen usePeriodic true
par Highway.car[1].cellularNic.nrDlFbGen initialTxMode "\"SINGLE_ANTENNA_PORT0\""
attr enum SINGLE_ANTENNA_PORT0,SINGLE_ANTENNA_PORT5,TRANSMIT_DIVERSITY,OL_SPATIAL_MULTIPLEXING,CL_SPATIAL_MULTIPLEXING,MULTI_USER
par Highway.car[1].cellularNic.nrDlFbGen feedbackGeneratorType "\"IDEAL\""
attr enum IDEAL,REAL,DAS_AWARE
par Highway.car[1].cellularNic.nrDlFbGen binderModule "\"binder\""
par Highway.car[1].cellularNic.nrDlFbGen phyModule "\"^.nrPhy\""
par Highway.car[1].cellularNic typename "\"simu5g.stack.NRNicUe\""
par Highway.car[1].cellularNic displayStringTextFormat "\"%a (%i)\\n%m\""
par Highway.car[1].cellularNic recordPcap false
par Highway.car[1].cellularNic numPcapRecorders 0
par Highway.car[1].cellularNic isWireless true
par Highway.car[1].cellularNic interfaceTableModule "\"Highway.car[1].interfaceTable\""
par Highway.car[1].cellularNic routingTableModule "\"Highway.car[1].ipv4.routingTable\""
par Highway.car[1].cellularNic hasRNISupport false
par Highway.car[1].cellularNic nodeType "\"UE\""
par Highway.car[1].cellularNic processingDelayIn 0s
attr unit s
par Highway.car[1].cellularNic processingDelayOut 0s
attr unit s
par Highway.car[1].cellularNic LteChannelModelType "\"LteRealisticChannelModel\""
par Highway.car[1].cellularNic d2dCapable true
par Highway.car[1].cellularNic dualConnectivityEnabled true
par Highway.car[1].cellularNic numCarriers 1
par Highway.car[1].cellularNic address "\"0A-AA-00-00-00-04\""
attr mutable ""
par Highway.car[1].cellularNic d2dInitialMode false
par Highway.car[1].cellularNic NRChannelModelType "\"NRChannelModel_3GPP38_901\""
par Highway.car[1].cellularNic numNRCarriers 1
scalar Highway.car[1].cellularNic packetDropInterfaceDown:count 0
attr interpolationmode none
attr recordingmode count
attr source packetDropReasonIsInterfaceDown(packetDropped)
attr title "packet drops: interface down, count"
scalar Highway.car[1].cellularNic packetDropInterfaceDown:sum(packetBytes) 0
attr interpolationmode none
attr recordingmode sum(packetBytes)
attr source packetDropReasonIsInterfaceDown(packetDropped)
attr title "packet drops: interface down, sum(packetBytes)"
scalar Highway.car[1].cellularNic packetDropNoCarrier:count 0
attr interpolationmode none
attr recordingmode count
attr source packetDropReasonIsNoCarrier(packetDropped)
attr title "packet drops: no carrier, count"
scalar Highway.car[1].cellularNic packetDropNoCarrier:sum(packetBytes) 0
attr interpolationmode none
attr recordingmode sum(packetBytes)
attr source packetDropReasonIsNoCarrier(packetDropped)
attr title "packet drops: no carrier, sum(packetBytes)"
par Highway.car[1].encap typename "\"inet.linklayer.ethernet.basic.EthernetEncapsulation\""
par Highway.car[1].encap registerProtocol true
par Highway.car[1].encap interfaceTableModule "\"Highway.car[1].interfaceTable\""
par Highway.car[1].encap fcsMode "\"declared\""
attr enum declared,computed
par Highway.car[1].encap stopOperationExtraTime -1s
attr unit s
par Highway.car[1].encap stopOperationTimeout 2s
attr unit s
scalar Highway.car[1].encap pauseSent:count 0
attr recordingmode count
attr title "pause sent, count"
scalar Highway.car[1].encap pauseSent:sum 0
attr recordingmode sum
attr title "pause sent, sum"
scalar Highway.car[1].encap decapPk:count 0
attr interpolationmode none
attr recordingmode count
attr source decapPk
attr title "packets decapsulated, count"
scalar Highway.car[1].encap decapPk:sum(packetBytes) 0
attr interpolationmode none
attr recordingmode sum(packetBytes)
attr source decapPk
attr title "packets decapsulated, sum(packetBytes)"
scalar Highway.car[1].encap encapPk:count 0
attr interpolationmode none
attr recordingmode count
attr source encapPk
attr title "packets encapsulated, count"
scalar Highway.car[1].encap encapPk:sum(packetBytes) 0
attr interpolationmode none
attr recordingmode sum(packetBytes)
attr source encapPk
attr title "packets encapsulated, sum(packetBytes)"
par Highway.car[1].ipv4.transportIn.channel typename "\"ned.IdealChannel\""
par Highway.car[1].ipv4.up.out[0].channel typename "\"ned.IdealChannel\""
par Highway.car[1].ipv4.lp.out[2].channel typename "\"ned.IdealChannel\""
par Highway.car[1].ipv4.ifIn.channel typename "\"ned.IdealChannel\""
par Highway.car[1].ipv4.configurator typename "\"inet.networklayer.configurator.ipv4.HostAutoConfigurator\""
par Highway.car[1].ipv4.configurator interfaceTableModule "\"Highway.car[1].interfaceTable\""
par Highway.car[1].ipv4.configurator interfaces "\"cellular lo0\""
par Highway.car[1].ipv4.configurator addressBase "\"10.0.0.0\""
par Highway.car[1].ipv4.configurator netmask "\"255.0.0.0\""
par Highway.car[1].ipv4.configurator mcastGroups "\"\""
par Highway.car[1].ipv4.routingTable typename "\"inet.networklayer.ipv4.Ipv4RoutingTable\""
par Highway.car[1].ipv4.routingTable interfaceTableModule "\"Highway.car[1].interfaceTable\""
par Highway.car[1].ipv4.routingTable routerId "\"auto\""
par Highway.car[1].ipv4.routingTable netmaskRoutes "\"*\""
par Highway.car[1].ipv4.routingTable forwarding false
par Highway.car[1].ipv4.routingTable multicastForwarding false
par Highway.car[1].ipv4.routingTable useAdminDist false
par Highway.car[1].ipv4.routingTable routingFile "\"\""
par Highway.car[1].ipv4.natTable typename "\"inet.networklayer.ipv4.Ipv4NatTable\""
par Highway.car[1].ipv4.natTable networkProtocolModule "\"^.ip\""
par Highway.car[1].ipv4.natTable config "<config/> at content:1"
par Highway.car[1].ipv4.up typename "\"inet.common.MessageDispatcher\""
par Highway.car[1].ipv4.up displayStringTextFormat "\"processed %p pk (%l)\""
par Highway.car[1].ipv4.up forwardServiceRegistration true
par Highway.car[1].ipv4.up forwardProtocolRegistration true
par Highway.car[1].ipv4.igmp typename "\"inet.networklayer.ipv4.Igmpv2\""
par Highway.car[1].ipv4.igmp interfaceTableModule "\"Highway.car[1].interfaceTable\""
par Highway.car[1].ipv4.igmp routingTableModule "\"Highway.car[1].ipv4.routingTable\""
par Highway.car[1].ipv4.igmp crcMode "\"declared\""
attr enum declared,computed
par Highway.car[1].ipv4.igmp enabled true
par Highway.car[1].ipv4.igmp robustnessVariable 2
par Highway.car[1].ipv4.igmp queryInterval 125s
attr unit s
par Highway.car[1].ipv4.igmp queryResponseInterval 10s
attr unit s
par Highway.car[1].ipv4.igmp groupMembershipInterval 260s
attr unit s
par Highway.car[1].ipv4.igmp otherQuerierPresentInterval 255s
attr unit s
par Highway.car[1].ipv4.igmp startupQueryInterval 31.25s
attr unit s
par Highway.car[1].ipv4.igmp startupQueryCount 2
par Highway.car[1].ipv4.igmp lastMemberQueryInterval 1s
attr unit s
par Highway.car[1].ipv4.igmp lastMemberQueryCount 2
par Highway.car[1].ipv4.igmp unsolicitedReportInterval 10s
attr unit s
par Highway.car[1].ipv4.icmp typename "\"inet.networklayer.ipv4.Icmp\""
par Highway.car[1].ipv4.icmp interfaceTableModule "\"Highway.car[1].interfaceTable\""
par Highway.car[1].ipv4.icmp routingTableModule "\"Highway.car[1].ipv4.routingTable\""
par Highway.car[1].ipv4.icmp crcMode "\"declared\""
attr enum declared,computed
attr mutable ""
par Highway.car[1].ipv4.icmp quoteLength 8B
attr mutable ""
attr unit B
par Highway.car[1].ipv4.mp typename "\"inet.common.MessageDispatcher\""
par Highway.car[1].ipv4.mp displayStringTextFormat "\"processed %p pk (%l)\""
par Highway.car[1].ipv4.mp forwardServiceRegistration true
par Highway.car[1].ipv4.mp forwardProtocolRegistration true
par Highway.car[1].ipv4.ip typename "\"inet.networklayer.ipv4.Ipv4\""
par Highway.car[1].ipv4.ip interfaceTableModule "\"Highway.car[1].interfaceTable\""
par Highway.car[1].ipv4.ip routingTableModule "\"Highway.car[1].ipv4.routingTable\""
par Highway.car[1].ipv4.ip arpModule "\"Highway.car[1].ipv4.arp\""
par Highway.car[1].ipv4.ip icmpModule "\"Highway.car[1].ipv4.icmp\""
par Highway.car[1].ipv4.ip crcMode "\"declared\""
attr enum declared,computed
par Highway.car[1].ipv4.ip timeToLive 32
par Highway.car[1].ipv4.ip multicastTimeToLive 32
par Highway.car[1].ipv4.ip fragmentTimeout 60s
attr unit s
par Highway.car[1].ipv4.ip limitedBroadcast false
par Highway.car[1].ipv4.ip directBroadcastInterfaces "\"\""
scalar Highway.car[1].ipv4.ip packetDropAddressResolutionFailed:count 0
attr interpolationmode none
attr recordingmode count
attr source packetDropReasonIsAddressResolutionFailed(packetDropped)
attr title "packet drop: address resolution failed, count"
scalar Highway.car[1].ipv4.ip packetDropAddressResolutionFailed:sum(packetBytes) 0
attr interpolationmode none
attr recordingmode sum(packetBytes)
attr source packetDropReasonIsAddressResolutionFailed(packetDropped)
attr title "packet drop: address resolution failed, sum(packetBytes)"
scalar Highway.car[1].ipv4.ip packetDropHopLimitReached:count 0
attr interpolationmode none
attr recordingmode count
attr source packetDropReasonIsHopLimitReached(packetDropped)
attr title "packet drop: hop limit reached, count"
scalar Highway.car[1].ipv4.ip packetDropHopLimitReached:sum(packetBytes) 0
attr interpolationmode none
attr recordingmode sum(packetBytes)
attr source packetDropReasonIsHopLimitReached(packetDropped)
attr title "packet drop: hop limit reached, sum(packetBytes)"
scalar Highway.car[1].ipv4.ip packetDropForwardingDisabled:count 0
attr interpolationmode none
attr recordingmode count
attr source packetDropReasonIsForwardingDisabled(packetDropped)
attr title "packet drop: forwarding disabled, count"
scalar Highway.car[1].ipv4.ip packetDropForwardingDisabled:sum(packetBytes) 0
attr interpolationmode none
attr recordingmode sum(packetBytes)
attr source packetDropReasonIsForwardingDisabled(packetDropped)
attr title "packet drop: forwarding disabled, sum(packetBytes)"
scalar Highway.car[1].ipv4.ip packetDropNoInterfaceFound:count 0
attr interpolationmode none
attr recordingmode count
attr source packetDropReasonIsNoInterfaceFound(packetDropped)
attr title "packet drop: no interface found, count"
scalar Highway.car[1].ipv4.ip packetDropNoInterfaceFound:sum(packetBytes) 0
attr interpolationmode none
attr recordingmode sum(packetBytes)
attr source packetDropReasonIsNoInterfaceFound(packetDropped)
attr title "packet drop: no interface found, sum(packetBytes)"
scalar Highway.car[1].ipv4.ip packetDropNoRouteFound:count 0
attr interpolationmode none
attr recordingmode count
attr source packetDropReasonIsNoRouteFound(packetDropped)
attr title "packet drop: no route found, count"
scalar Highway.car[1].ipv4.ip packetDropNoRouteFound:sum(packetBytes) 0
attr interpolationmode none
attr recordingmode sum(packetBytes)
attr source packetDropReasonIsNoRouteFound(packetDropped)
attr title "packet drop: no route found, sum(packetBytes)"
scalar Highway.car[1].ipv4.ip packetDropUndefined:count 0
attr interpolationmode none
attr recordingmode count
attr source packetDropReasonIsUndefined(packetDropped)
attr title "packet drop: undefined, count"
scalar Highway.car[1].ipv4.ip packetDropUndefined:sum(packetBytes) 0
attr interpolationmode none
attr recordingmode sum(packetBytes)
attr source packetDropReasonIsUndefined(packetDropped)
attr title "packet drop: undefined, sum(packetBytes)"
par Highway.car[1].ipv4.arp typename "\"inet.networklayer.arp.ipv4.Arp\""
par Highway.car[1].ipv4.arp interfaceTableModule "\"Highway.car[1].interfaceTable\""
par Highway.car[1].ipv4.arp routingTableModule "\"Highway.car[1].ipv4.routingTable\""
par Highway.car[1].ipv4.arp retryTimeout 1s
attr unit s
par Highway.car[1].ipv4.arp retryCount 3
par Highway.car[1].ipv4.arp cacheTimeout 120s
attr unit s
par Highway.car[1].ipv4.arp proxyArpInterfaces "\"*\""
scalar Highway.car[1].ipv4.arp arpResolutionFailed:count 0
attr recordingmode count
attr title "ARP failed resolutions, count"
scalar Highway.car[1].ipv4.arp arpResolutionCompleted:count 0
attr recordingmode count
attr title "ARP completed resolutions, count"
scalar Highway.car[1].ipv4.arp arpResolutionInitiated:count 0
attr recordingmode count
attr title "ARP initiated resolutions, count"
scalar Highway.car[1].ipv4.arp arpReplySent:count 0
attr recordingmode count
attr source arpReplySent
attr title "ARP replies sent, count"
scalar Highway.car[1].ipv4.arp arpReplySent:sum(packetBytes) 0
attr recordingmode sum(packetBytes)
attr source arpReplySent
attr title "ARP replies sent, sum(packetBytes)"
scalar Highway.car[1].ipv4.arp arpRequestSent:count 0
attr recordingmode count
attr source arpRequestSent
attr title "ARP request sent, count"
scalar Highway.car[1].ipv4.arp arpRequestSent:sum(packetBytes) 0
attr recordingmode sum(packetBytes)
attr source arpRequestSent
attr title "ARP request sent, sum(packetBytes)"
par Highway.car[1].ipv4.lp typename "\"inet.common.MessageDispatcher\""
par Highway.car[1].ipv4.lp displayStringTextFormat "\"processed %p pk (%l)\""
par Highway.car[1].ipv4.lp forwardServiceRegistration true
par Highway.car[1].ipv4.lp forwardProtocolRegistration true
par Highway.car[1].ipv4 typename "\"inet.networklayer.ipv4.Ipv4NetworkLayer\""
par Highway.car[1].ipv4 forwarding false
par Highway.car[1].ipv4 multicastForwarding false
par Highway.car[1].ipv4 interfaceTableModule "\"Highway.car[1].interfaceTable\""
par Highway.car[1].ipv4 displayStringTextFormat "\"%i\""
par Highway.car[1].udp typename "\"inet.transportlayer.udp.Udp\""
par Highway.car[1].udp interfaceTableModule "\"Highway.car[1].interfaceTable\""
par Highway.car[1].udp icmpModule "\"^.ipv4.icmp\""
par Highway.car[1].udp icmpv6Module "\"^.ipv6.icmpv6\""
par Highway.car[1].udp crcMode "\"declared\""
attr enum disabled,declared,computed
par Highway.car[1].udp defaultMulticastLoop true
scalar Highway.car[1].udp packetReceived:count 0
attr interpolationmode none
attr recordingmode count
attr source packetReceived
attr title "packets received, count"
scalar Highway.car[1].udp packetReceived:sum(packetBytes) 0
attr interpolationmode none
attr recordingmode sum(packetBytes)
attr source packetReceived
attr title "packets received, sum(packetBytes)"
scalar Highway.car[1].udp packetSent:count 0
attr interpolationmode none
attr recordingmode count
attr source packetSent
attr title "packets sent, count"
scalar Highway.car[1].udp packetSent:sum(packetBytes) 0
attr interpolationmode none
attr recordingmode sum(packetBytes)
attr source packetSent
attr title "packets sent, sum(packetBytes)"
scalar Highway.car[1].udp passedUpPk:count 0
attr interpolationmode none
attr recordingmode count
attr source packetSentToUpper
attr title "packets passed up, count"
scalar Highway.car[1].udp droppedPkWrongPort:count 0
attr interpolationmode none
attr recordingmode count
attr source packetDropReasonIsNoPortFound(packetDropped)
attr title "packets dropped (wrong port), count"
scalar Highway.car[1].udp droppedPkBadChecksum:count 0
attr interpolationmode none
attr recordingmode count
attr source packetDropReasonIsIncorrectlyReceived(packetDropped)
attr title "packets dropped (checksum error), count"
par Highway.car[1].tcp typename "\"inet.transportlayer.tcp.Tcp\""
par Highway.car[1].tcp crcMode "\"declared\""
attr enum declared,computed
par Highway.car[1].tcp advertisedWindow 7504
par Highway.car[1].tcp delayedAcksEnabled false
par Highway.car[1].tcp nagleEnabled true
par Highway.car[1].tcp limitedTransmitEnabled false
par Highway.car[1].tcp increasedIWEnabled false
par Highway.car[1].tcp sackSupport false
par Highway.car[1].tcp windowScalingSupport false
par Highway.car[1].tcp windowScalingFactor -1
par Highway.car[1].tcp timestampSupport false
par Highway.car[1].tcp mss 536
par Highway.car[1].tcp msl 120s
attr unit s
par Highway.car[1].tcp tcpAlgorithmClass "\"TcpReno\""
par Highway.car[1].tcp useDataNotification false
par Highway.car[1].tcp dupthresh 3
par Highway.car[1].tcp initialSsthresh 4294967295
par Highway.car[1].tcp stopOperationExtraTime 0s
attr unit s
par Highway.car[1].tcp stopOperationTimeout 2s
attr unit s
par Highway.car[1].tcp ecnWillingness false
par Highway.car[1].tcp dctcpGamma 0.0625
par Highway.car[1].app[0] typename "\"simu5g.apps.voip.VoIPReceiver\""
par Highway.car[1].app[0] localPort 3000
par Highway.car[1].app[0] emodel_Ie_ 5
par Highway.car[1].app[0] emodel_Bpl_ 10
par Highway.car[1].app[0] emodel_A_ 5
par Highway.car[1].app[0] emodel_Ro_ 93.2
par Highway.car[1].app[0] playout_delay 0s
attr unit s
par Highway.car[1].app[0] dim_buffer 20pk
attr unit pk
par Highway.car[1].app[0] sampling_time 0.02s
attr unit s
scalar Highway.car[1].app[0] voIPReceivedThroughput:mean -nan
attr recordingmode mean
attr source voIPReceivedThroughput
attr title "Throughput received at the application level, mean"
attr unit Bps
scalar Highway.car[1].app[0] voIPPlayoutLoss:mean -nan
attr recordingmode mean
attr source voIPPlayoutLoss
attr title "VoIP Playout Loss, mean"
attr unit ratio
scalar Highway.car[1].app[0] voIPJitter:mean -nan
attr recordingmode mean
attr source voIPJitter
attr title "VoIP Jitter, mean"
attr unit s
scalar Highway.car[1].app[0] voIPTaildropLoss:mean -nan
attr recordingmode mean
attr source voIPTaildropLoss
attr title "VoIP Tail Drop Loss, mean"
attr unit ratio
scalar Highway.car[1].app[0] voIPMos:mean -nan
attr recordingmode mean
attr source voIPMos
attr title "VoIP Mos Signal, mean"
attr unit MOS
scalar Highway.car[1].app[0] voIPPlayoutDelay:mean -nan
attr recordingmode mean
attr source voIPPlayoutDelay
attr title "VoIP Playout Delay, mean"
attr unit s
scalar Highway.car[1].app[0] voIPFrameDelay:mean -nan
attr recordingmode mean
attr source voIPFrameDelay
attr title "VoIP Frame Delay, mean"
attr unit s
scalar Highway.car[1].app[0] voIPFrameLoss:mean -nan
attr recordingmode mean
attr source voIPFrameLoss
attr title "VoIP Frame Loss, mean"
attr unit ratio
par Highway.car[1].at typename "\"inet.common.MessageDispatcher\""
par Highway.car[1].at displayStringTextFormat "\"processed %p pk (%l)\""
par Highway.car[1].at forwardServiceRegistration true
par Highway.car[1].at forwardProtocolRegistration true
par Highway.car[1].tn typename "\"inet.common.MessageDispatcher\""
par Highway.car[1].tn displayStringTextFormat "\"processed %p pk (%l)\""
par Highway.car[1].tn forwardServiceRegistration true
par Highway.car[1].tn forwardProtocolRegistration true
par Highway.car[1].nl typename "\"inet.common.MessageDispatcher\""
par Highway.car[1].nl displayStringTextFormat "\"processed %p pk (%l)\""
par Highway.car[1].nl forwardServiceRegistration true
par Highway.car[1].nl forwardProtocolRegistration true
par Highway.car[1] typename "\"simu5g.nodes.cars.NRCar\""
par Highway.car[1] numApps 1
par Highway.car[1] hasUdp true
par Highway.car[1] hasTcp true
par Highway.car[1] hasSctp false
par Highway.car[1] nodeType "\"UE\""
par Highway.car[1] masterId 2
attr mutable ""
par Highway.car[1] macNodeId 1026
attr mutable ""
par Highway.car[1] macCellId 2
attr mutable ""
par Highway.car[1] hasIpv4 true
par Highway.car[1] hasIpv6 false
par Highway.car[1] numEthInterfaces 0
par Highway.car[1] extHostAddress "\"\""
par Highway.car[1] numLoInterfaces 1
par Highway.car[1] numPcapRecorders 0
par Highway.car[1] hasRNISupport false
par Highway.car[1] nrMasterId 1
attr mutable ""
par Highway.car[1] nrMacNodeId 2050
attr mutable ""
par Highway.car[1] nrMacCellId 1
attr mutable ""
par Highway typename "\"simu5g.simulations.NR.cars.Highway\""
par Highway playgroundSizeX 20000m
attr unit m
par Highway playgroundSizeY 20000m
attr unit m
par Highway playgroundSizeZ 50m
attr unit m

